
  corina  02132003023D 1   1.00000     0.00000     0
CORINA evaluation license 4.00 0066  26.04.2017
 71 75  0  0  0  0            999 V2000
    1.8783   -1.7540    1.0706 C   0  0  0  0  0  0  0  0  0  0  0  0
    2.5373   -2.1359   -0.2563 C   0  0  0  0  0  0  0  0  0  0  0  0
    2.7166   -0.8830   -1.1160 C   0  0  0  0  0  0  0  0  0  0  0  0
    1.3498   -0.2516   -1.3884 C   0  0  0  0  0  0  0  0  0  0  0  0
    0.6909    0.1304   -0.0615 C   0  0  0  0  0  0  0  0  0  0  0  0
    1.6183   -0.2464    1.0956 C   0  0  0  0  0  0  0  0  0  0  0  0
    2.9446    0.5023    0.9507 C   0  0  0  0  0  0  0  0  0  0  0  0
    3.6036    0.1204   -0.3763 C   0  0  0  0  0  0  0  0  0  0  0  0
    2.6885    1.9872    0.9753 C   0  0  0  0  0  0  0  0  0  0  0  0
    2.9700    2.7184    2.1141 C   0  0  0  0  0  0  0  0  0  0  0  0
    2.7392    4.0812    2.1352 C   0  0  0  0  0  0  0  0  0  0  0  0
    2.2179    4.7112    1.0207 C   0  0  0  0  0  0  0  0  0  0  0  0
    1.9319    3.9792   -0.1166 C   0  0  0  0  0  0  0  0  0  0  0  0
    2.1668    2.6172   -0.1391 C   0  0  0  0  0  0  0  0  0  0  0  0
   -0.5679   -0.5802    0.0760 O   0  0  0  0  0  0  0  0  0  0  0  0
   -1.6717    0.0449   -0.3628 C   0  0  0  0  0  0  0  0  0  0  0  0
   -1.5803    1.1153   -0.9158 O   0  0  0  0  0  0  0  0  0  0  0  0
   -3.0249   -0.5883   -0.1657 C   0  0  0  0  0  0  0  0  0  0  0  0
   -4.0696    0.3352   -0.6280 N   0  0  0  0  0  0  0  0  0  0  0  0
   -4.1213    1.5361    0.2155 C   0  0  0  0  0  0  0  0  0  0  0  0
   -5.1158    2.5361   -0.3787 C   0  0  0  0  0  0  0  0  0  0  0  0
   -6.4998    1.8859   -0.4588 C   0  0  0  0  0  0  0  0  0  0  0  0
   -6.4082    0.6115   -1.3026 C   0  0  0  0  0  0  0  0  0  0  0  0
   -5.3763   -0.3327   -0.6816 C   0  0  0  0  0  0  0  0  0  0  0  0
    3.3493   -1.2498   -2.3900 N   0  0  0  0  0  0  0  0  0  0  0  0
    3.5376   -0.0690   -3.2434 C   0  0  0  0  0  0  0  0  0  0  0  0
    4.6236   -1.9447   -2.1641 C   0  0  0  0  0  0  0  0  0  0  0  0
    0.5719   -2.4915    1.2133 C   0  0  0  0  0  0  0  0  0  0  0  0
    0.0379   -2.7150    2.4686 C   0  0  0  0  0  0  0  0  0  0  0  0
   -1.1626   -3.3877    2.5993 C   0  0  0  0  0  0  0  0  0  0  0  0
   -1.8244   -3.8452    1.4752 C   0  0  0  0  0  0  0  0  0  0  0  0
   -1.2881   -3.6259    0.2202 C   0  0  0  0  0  0  0  0  0  0  0  0
   -0.0897   -2.9494    0.0893 C   0  0  0  0  0  0  0  0  0  0  0  0
    2.5390   -2.0224    1.8949 H   0  0  0  0  0  0  0  0  0  0  0  0
    3.5110   -2.5858   -0.0622 H   0  0  0  0  0  0  0  0  0  0  0  0
    1.9053   -2.8508   -0.7833 H   0  0  0  0  0  0  0  0  0  0  0  0
    0.7179   -0.9665   -1.9154 H   0  0  0  0  0  0  0  0  0  0  0  0
    1.4776    0.6410   -2.0009 H   0  0  0  0  0  0  0  0  0  0  0  0
    0.5056    1.2044   -0.0437 H   0  0  0  0  0  0  0  0  0  0  0  0
    1.1488    0.0257    2.0409 H   0  0  0  0  0  0  0  0  0  0  0  0
    3.6054    0.2339    1.7750 H   0  0  0  0  0  0  0  0  0  0  0  0
    4.5773   -0.3295   -0.1822 H   0  0  0  0  0  0  0  0  0  0  0  0
    3.7314    1.0130   -0.9887 H   0  0  0  0  0  0  0  0  0  0  0  0
    3.3735    2.2255    2.9863 H   0  0  0  0  0  0  0  0  0  0  0  0
    2.9629    4.6531    3.0236 H   0  0  0  0  0  0  0  0  0  0  0  0
    2.0344    5.7753    1.0383 H   0  0  0  0  0  0  0  0  0  0  0  0
    1.5247    4.4714   -0.9874 H   0  0  0  0  0  0  0  0  0  0  0  0
    1.9431    2.0452   -1.0275 H   0  0  0  0  0  0  0  0  0  0  0  0
   -3.1739   -0.8053    0.8920 H   0  0  0  0  0  0  0  0  0  0  0  0
   -3.0795   -1.5144   -0.7379 H   0  0  0  0  0  0  0  0  0  0  0  0
   -3.1319    1.9911    0.2606 H   0  0  0  0  0  0  0  0  0  0  0  0
   -4.4403    1.2604    1.2207 H   0  0  0  0  0  0  0  0  0  0  0  0
   -4.7900    2.8228   -1.3786 H   0  0  0  0  0  0  0  0  0  0  0  0
   -5.1655    3.4208    0.2561 H   0  0  0  0  0  0  0  0  0  0  0  0
   -6.8427    1.6344    0.5448 H   0  0  0  0  0  0  0  0  0  0  0  0
   -7.2019    2.5795   -0.9214 H   0  0  0  0  0  0  0  0  0  0  0  0
   -7.3814    0.1211   -1.3280 H   0  0  0  0  0  0  0  0  0  0  0  0
   -6.1028    0.8679   -2.3171 H   0  0  0  0  0  0  0  0  0  0  0  0
   -5.2984   -1.2350   -1.2881 H   0  0  0  0  0  0  0  0  0  0  0  0
   -5.6894   -0.5996    0.3277 H   0  0  0  0  0  0  0  0  0  0  0  0
    4.1753    0.6515   -2.7311 H   0  0  0  0  0  0  0  0  0  0  0  0
    4.0077   -0.3688   -4.1800 H   0  0  0  0  0  0  0  0  0  0  0  0
    2.5696    0.3865   -3.4522 H   0  0  0  0  0  0  0  0  0  0  0  0
    4.4451   -2.8529   -1.5884 H   0  0  0  0  0  0  0  0  0  0  0  0
    5.0707   -2.2048   -3.1236 H   0  0  0  0  0  0  0  0  0  0  0  0
    5.3006   -1.2922   -1.6128 H   0  0  0  0  0  0  0  0  0  0  0  0
    0.5571   -2.3612    3.3471 H   0  0  0  0  0  0  0  0  0  0  0  0
   -1.5818   -3.5588    3.5798 H   0  0  0  0  0  0  0  0  0  0  0  0
   -2.7607   -4.3737    1.5775 H   0  0  0  0  0  0  0  0  0  0  0  0
   -1.8052   -3.9833   -0.6581 H   0  0  0  0  0  0  0  0  0  0  0  0
    0.3295   -2.7783   -0.8913 H   0  0  0  0  0  0  0  0  0  0  0  0
  1  6  1  0  0  0  0
  1  2  1  0  0  0  0
  1 28  1  0  0  0  0
  1 34  1  0  0  0  0
  2  3  1  0  0  0  0
  2 35  1  0  0  0  0
  2 36  1  0  0  0  0
  3  8  1  0  0  0  0
  3  4  1  0  0  0  0
  3 25  1  0  0  0  0
  4  5  1  0  0  0  0
  4 37  1  0  0  0  0
  4 38  1  0  0  0  0
  5  6  1  0  0  0  0
  5 15  1  0  0  0  0
  5 39  1  0  0  0  0
  6  7  1  0  0  0  0
  6 40  1  0  0  0  0
  7  8  1  0  0  0  0
  7  9  1  0  0  0  0
  7 41  1  0  0  0  0
  8 42  1  0  0  0  0
  8 43  1  0  0  0  0
  9 14  2  0  0  0  0
  9 10  1  0  0  0  0
 10 11  2  0  0  0  0
 10 44  1  0  0  0  0
 11 12  1  0  0  0  0
 11 45  1  0  0  0  0
 12 13  2  0  0  0  0
 12 46  1  0  0  0  0
 13 14  1  0  0  0  0
 13 47  1  0  0  0  0
 14 48  1  0  0  0  0
 15 16  1  0  0  0  0
 16 17  2  0  0  0  0
 16 18  1  0  0  0  0
 18 19  1  0  0  0  0
 18 49  1  0  0  0  0
 18 50  1  0  0  0  0
 19 24  1  0  0  0  0
 19 20  1  0  0  0  0
 20 21  1  0  0  0  0
 20 51  1  0  0  0  0
 20 52  1  0  0  0  0
 21 22  1  0  0  0  0
 21 53  1  0  0  0  0
 21 54  1  0  0  0  0
 22 23  1  0  0  0  0
 22 55  1  0  0  0  0
 22 56  1  0  0  0  0
 23 24  1  0  0  0  0
 23 57  1  0  0  0  0
 23 58  1  0  0  0  0
 24 59  1  0  0  0  0
 24 60  1  0  0  0  0
 25 26  1  0  0  0  0
 25 27  1  0  0  0  0
 26 61  1  0  0  0  0
 26 62  1  0  0  0  0
 26 63  1  0  0  0  0
 27 64  1  0  0  0  0
 27 65  1  0  0  0  0
 27 66  1  0  0  0  0
 28 33  2  0  0  0  0
 28 29  1  0  0  0  0
 29 30  2  0  0  0  0
 29 67  1  0  0  0  0
 30 31  1  0  0  0  0
 30 68  1  0  0  0  0
 31 32  2  0  0  0  0
 31 69  1  0  0  0  0
 32 33  1  0  0  0  0
 32 70  1  0  0  0  0
 33 71  1  0  0  0  0
M  END
