
  corina  02132003033D 1   1.00000     0.00000     0
CORINA evaluation license 4.00 0066  26.04.2017
 75 80  0  0  0  0            999 V2000
   -2.3275   -0.1307   -1.4666 C   0  0  0  0  0  0  0  0  0  0  0  0
   -2.6831    1.1919   -0.7846 C   0  0  0  0  0  0  0  0  0  0  0  0
   -1.7182    1.4428    0.3760 C   0  0  0  0  0  0  0  0  0  0  0  0
   -0.2860    1.5130   -0.1575 C   0  0  0  0  0  0  0  0  0  0  0  0
    0.0696    0.1903   -0.8394 C   0  0  0  0  0  0  0  0  0  0  0  0
   -1.1256   -0.7616   -0.7606 C   0  0  0  0  0  0  0  0  0  0  0  0
   -1.4746   -1.0217    0.7062 C   0  0  0  0  0  0  0  0  0  0  0  0
   -1.8301    0.3009    1.3882 C   0  0  0  0  0  0  0  0  0  0  0  0
   -0.2908   -1.6431    1.4016 C   0  0  0  0  0  0  0  0  0  0  0  0
   -0.0627   -3.0025    1.2965 C   0  0  0  0  0  0  0  0  0  0  0  0
    1.0256   -3.5718    1.9308 C   0  0  0  0  0  0  0  0  0  0  0  0
    1.8805   -2.7833    2.6779 C   0  0  0  0  0  0  0  0  0  0  0  0
    1.6498   -1.4247    2.7869 C   0  0  0  0  0  0  0  0  0  0  0  0
    0.5639   -0.8547    2.1491 C   0  0  0  0  0  0  0  0  0  0  0  0
    1.2102   -0.4084   -0.1694 O   0  0  0  0  0  0  0  0  0  0  0  0
    2.4246   -0.1347   -0.6715 C   0  0  0  0  0  0  0  0  0  0  0  0
    2.5371    0.6395   -1.5924 O   0  0  0  0  0  0  0  0  0  0  0  0
    3.6476   -0.7930   -0.0868 C   0  0  0  0  0  0  0  0  0  0  0  0
    4.8535   -0.2038   -0.6839 N   0  0  0  0  0  0  0  0  0  0  0  0
    4.8650    1.2550   -0.5160 C   0  0  0  0  0  0  0  0  0  0  0  0
    6.0558    1.8475   -1.2730 C   0  0  0  0  0  0  0  0  0  0  0  0
    7.3527    1.2423   -0.7287 C   0  0  0  0  0  0  0  0  0  0  0  0
    7.2947   -0.2812   -0.8711 C   0  0  0  0  0  0  0  0  0  0  0  0
    6.0680   -0.8120   -0.1258 C   0  0  0  0  0  0  0  0  0  0  0  0
   -2.0596    2.7127    1.0308 N   0  0  0  0  0  0  0  0  0  0  0  0
   -3.4184    2.6611    1.6112 C   0  0  0  0  0  0  0  0  0  0  0  0
   -3.9679    4.1016    1.4608 C   0  0  0  0  0  0  0  0  0  0  0  0
   -3.3828    4.5180    0.0856 C   0  0  0  0  0  0  0  0  0  0  0  0
   -2.0000    3.8332    0.0743 C   0  0  0  0  0  0  0  0  0  0  0  0
   -3.5047   -1.0683   -1.3889 C   0  0  0  0  0  0  0  0  0  0  0  0
   -3.8578   -1.8270   -2.4892 C   0  0  0  0  0  0  0  0  0  0  0  0
   -4.9350   -2.6903   -2.4166 C   0  0  0  0  0  0  0  0  0  0  0  0
   -5.6650   -2.7878   -1.2468 C   0  0  0  0  0  0  0  0  0  0  0  0
   -5.3148   -2.0255   -0.1480 C   0  0  0  0  0  0  0  0  0  0  0  0
   -4.2350   -1.1655   -0.2192 C   0  0  0  0  0  0  0  0  0  0  0  0
   -2.0789    0.0546   -2.5116 H   0  0  0  0  0  0  0  0  0  0  0  0
   -3.7034    1.1420   -0.4046 H   0  0  0  0  0  0  0  0  0  0  0  0
   -2.6033    2.0055   -1.5057 H   0  0  0  0  0  0  0  0  0  0  0  0
    0.4014    1.6917    0.6694 H   0  0  0  0  0  0  0  0  0  0  0  0
   -0.2063    2.3265   -0.8785 H   0  0  0  0  0  0  0  0  0  0  0  0
    0.3182    0.3756   -1.8844 H   0  0  0  0  0  0  0  0  0  0  0  0
   -0.8723   -1.7039   -1.2465 H   0  0  0  0  0  0  0  0  0  0  0  0
   -2.3260   -1.6999    0.7623 H   0  0  0  0  0  0  0  0  0  0  0  0
   -1.1428    0.4796    2.2150 H   0  0  0  0  0  0  0  0  0  0  0  0
   -2.8505    0.2509    1.7682 H   0  0  0  0  0  0  0  0  0  0  0  0
   -0.7330   -3.6192    0.7162 H   0  0  0  0  0  0  0  0  0  0  0  0
    1.2061   -4.6332    1.8454 H   0  0  0  0  0  0  0  0  0  0  0  0
    2.7289   -3.2286    3.1763 H   0  0  0  0  0  0  0  0  0  0  0  0
    2.3177   -0.8086    3.3706 H   0  0  0  0  0  0  0  0  0  0  0  0
    0.3834    0.2067    2.2345 H   0  0  0  0  0  0  0  0  0  0  0  0
    3.6632   -0.6375    0.9920 H   0  0  0  0  0  0  0  0  0  0  0  0
    3.6218   -1.8617   -0.2995 H   0  0  0  0  0  0  0  0  0  0  0  0
    3.9391    1.6733   -0.9109 H   0  0  0  0  0  0  0  0  0  0  0  0
    4.9505    1.4981    0.5431 H   0  0  0  0  0  0  0  0  0  0  0  0
    6.0730    2.9287   -1.1353 H   0  0  0  0  0  0  0  0  0  0  0  0
    5.9638    1.6166   -2.3342 H   0  0  0  0  0  0  0  0  0  0  0  0
    7.4643    1.5058    0.3231 H   0  0  0  0  0  0  0  0  0  0  0  0
    8.2005    1.6290   -1.2941 H   0  0  0  0  0  0  0  0  0  0  0  0
    8.1971   -0.7210   -0.4463 H   0  0  0  0  0  0  0  0  0  0  0  0
    7.2222   -0.5456   -1.9260 H   0  0  0  0  0  0  0  0  0  0  0  0
    6.1479   -0.5593    0.9315 H   0  0  0  0  0  0  0  0  0  0  0  0
    6.0160   -1.8951   -0.2372 H   0  0  0  0  0  0  0  0  0  0  0  0
   -4.0408    1.9578    1.0581 H   0  0  0  0  0  0  0  0  0  0  0  0
   -3.3711    2.3810    2.6636 H   0  0  0  0  0  0  0  0  0  0  0  0
   -3.5942    4.7470    2.2557 H   0  0  0  0  0  0  0  0  0  0  0  0
   -5.0576    4.1040    1.4384 H   0  0  0  0  0  0  0  0  0  0  0  0
   -3.2770    5.6011    0.0239 H   0  0  0  0  0  0  0  0  0  0  0  0
   -4.0039    4.1458   -0.7291 H   0  0  0  0  0  0  0  0  0  0  0  0
   -1.2321    4.5430    0.3820 H   0  0  0  0  0  0  0  0  0  0  0  0
   -1.7781    3.4568   -0.9243 H   0  0  0  0  0  0  0  0  0  0  0  0
   -3.2900   -1.7478   -3.4045 H   0  0  0  0  0  0  0  0  0  0  0  0
   -5.2084   -3.2861   -3.2749 H   0  0  0  0  0  0  0  0  0  0  0  0
   -6.5087   -3.4597   -1.1911 H   0  0  0  0  0  0  0  0  0  0  0  0
   -5.8851   -2.1017    0.7660 H   0  0  0  0  0  0  0  0  0  0  0  0
   -3.9616   -0.5697    0.6391 H   0  0  0  0  0  0  0  0  0  0  0  0
  1  6  1  0  0  0  0
  1  2  1  0  0  0  0
  1 30  1  0  0  0  0
  1 36  1  0  0  0  0
  2  3  1  0  0  0  0
  2 37  1  0  0  0  0
  2 38  1  0  0  0  0
  3  8  1  0  0  0  0
  3  4  1  0  0  0  0
  3 25  1  0  0  0  0
  4  5  1  0  0  0  0
  4 39  1  0  0  0  0
  4 40  1  0  0  0  0
  5  6  1  0  0  0  0
  5 15  1  0  0  0  0
  5 41  1  0  0  0  0
  6  7  1  0  0  0  0
  6 42  1  0  0  0  0
  7  8  1  0  0  0  0
  7  9  1  0  0  0  0
  7 43  1  0  0  0  0
  8 44  1  0  0  0  0
  8 45  1  0  0  0  0
  9 14  2  0  0  0  0
  9 10  1  0  0  0  0
 10 11  2  0  0  0  0
 10 46  1  0  0  0  0
 11 12  1  0  0  0  0
 11 47  1  0  0  0  0
 12 13  2  0  0  0  0
 12 48  1  0  0  0  0
 13 14  1  0  0  0  0
 13 49  1  0  0  0  0
 14 50  1  0  0  0  0
 15 16  1  0  0  0  0
 16 17  2  0  0  0  0
 16 18  1  0  0  0  0
 18 19  1  0  0  0  0
 18 51  1  0  0  0  0
 18 52  1  0  0  0  0
 19 24  1  0  0  0  0
 19 20  1  0  0  0  0
 20 21  1  0  0  0  0
 20 53  1  0  0  0  0
 20 54  1  0  0  0  0
 21 22  1  0  0  0  0
 21 55  1  0  0  0  0
 21 56  1  0  0  0  0
 22 23  1  0  0  0  0
 22 57  1  0  0  0  0
 22 58  1  0  0  0  0
 23 24  1  0  0  0  0
 23 59  1  0  0  0  0
 23 60  1  0  0  0  0
 24 61  1  0  0  0  0
 24 62  1  0  0  0  0
 25 29  1  0  0  0  0
 25 26  1  0  0  0  0
 26 27  1  0  0  0  0
 26 63  1  0  0  0  0
 26 64  1  0  0  0  0
 27 28  1  0  0  0  0
 27 65  1  0  0  0  0
 27 66  1  0  0  0  0
 28 29  1  0  0  0  0
 28 67  1  0  0  0  0
 28 68  1  0  0  0  0
 29 69  1  0  0  0  0
 29 70  1  0  0  0  0
 30 35  2  0  0  0  0
 30 31  1  0  0  0  0
 31 32  2  0  0  0  0
 31 71  1  0  0  0  0
 32 33  1  0  0  0  0
 32 72  1  0  0  0  0
 33 34  2  0  0  0  0
 33 73  1  0  0  0  0
 34 35  1  0  0  0  0
 34 74  1  0  0  0  0
 35 75  1  0  0  0  0
M  END
