
  corina  02132003053D 1   1.00000     0.00000     0
CORINA evaluation license 4.00 0066  26.04.2017
 72 76  0  0  0  0            999 V2000
    2.3635    1.6755   -0.9451 C   0  0  0  0  0  0  0  0  0  0  0  0
    2.9548    1.9300    0.4429 C   0  0  0  0  0  0  0  0  0  0  0  0
    2.9574    0.6260    1.2431 C   0  0  0  0  0  0  0  0  0  0  0  0
    1.5233    0.1124    1.3860 C   0  0  0  0  0  0  0  0  0  0  0  0
    0.9321   -0.1422   -0.0020 C   0  0  0  0  0  0  0  0  0  0  0  0
    1.9720    0.2017   -1.0702 C   0  0  0  0  0  0  0  0  0  0  0  0
    3.2117   -0.6736   -0.8756 C   0  0  0  0  0  0  0  0  0  0  0  0
    3.8030   -0.4190    0.5124 C   0  0  0  0  0  0  0  0  0  0  0  0
    2.8261   -2.1252   -0.9989 C   0  0  0  0  0  0  0  0  0  0  0  0
    3.0458   -2.8004   -2.1849 C   0  0  0  0  0  0  0  0  0  0  0  0
    2.6961   -4.1331   -2.2965 C   0  0  0  0  0  0  0  0  0  0  0  0
    2.1179   -4.7880   -1.2252 C   0  0  0  0  0  0  0  0  0  0  0  0
    1.8938   -4.1115   -0.0408 C   0  0  0  0  0  0  0  0  0  0  0  0
    2.2475   -2.7800    0.0723 C   0  0  0  0  0  0  0  0  0  0  0  0
   -0.2444    0.6885   -0.1867 O   0  0  0  0  0  0  0  0  0  0  0  0
   -1.4123    0.1984    0.2577 C   0  0  0  0  0  0  0  0  0  0  0  0
   -1.4372   -0.8452    0.8661 O   0  0  0  0  0  0  0  0  0  0  0  0
   -2.6918    0.9529    0.0032 C   0  0  0  0  0  0  0  0  0  0  0  0
   -3.8343    0.1432    0.4472 N   0  0  0  0  0  0  0  0  0  0  0  0
   -3.9691   -1.0694   -0.3700 C   0  0  0  0  0  0  0  0  0  0  0  0
   -5.0735   -1.9564    0.2093 C   0  0  0  0  0  0  0  0  0  0  0  0
   -6.3921   -1.1782    0.2227 C   0  0  0  0  0  0  0  0  0  0  0  0
   -6.2107    0.1038    1.0401 C   0  0  0  0  0  0  0  0  0  0  0  0
   -5.0734    0.9311    0.4366 C   0  0  0  0  0  0  0  0  0  0  0  0
   -7.4147   -1.9816    0.8151 O   0  0  0  0  0  0  0  0  0  0  0  0
    3.5251    0.8704    2.5758 N   0  0  0  0  0  0  0  0  0  0  0  0
    3.5437   -0.3625    3.3742 C   0  0  0  0  0  0  0  0  0  0  0  0
    4.8697    1.4535    2.4763 C   0  0  0  0  0  0  0  0  0  0  0  0
    1.1425    2.5376   -1.1368 C   0  0  0  0  0  0  0  0  0  0  0  0
    0.7347    2.8850   -2.4112 C   0  0  0  0  0  0  0  0  0  0  0  0
   -0.3879    3.6722   -2.5872 C   0  0  0  0  0  0  0  0  0  0  0  0
   -1.0972    4.1200   -1.4884 C   0  0  0  0  0  0  0  0  0  0  0  0
   -0.6867    3.7766   -0.2139 C   0  0  0  0  0  0  0  0  0  0  0  0
    0.4334    2.9858   -0.0380 C   0  0  0  0  0  0  0  0  0  0  0  0
    3.1044    1.9205   -1.7061 H   0  0  0  0  0  0  0  0  0  0  0  0
    3.9765    2.2959    0.3411 H   0  0  0  0  0  0  0  0  0  0  0  0
    2.3524    2.6745    0.9635 H   0  0  0  0  0  0  0  0  0  0  0  0
    0.9210    0.8569    1.9066 H   0  0  0  0  0  0  0  0  0  0  0  0
    1.5252   -0.8167    1.9561 H   0  0  0  0  0  0  0  0  0  0  0  0
    0.6532   -1.1921   -0.0911 H   0  0  0  0  0  0  0  0  0  0  0  0
    1.5508    0.0204   -2.0590 H   0  0  0  0  0  0  0  0  0  0  0  0
    3.9526   -0.4286   -1.6366 H   0  0  0  0  0  0  0  0  0  0  0  0
    4.8247   -0.0531    0.4106 H   0  0  0  0  0  0  0  0  0  0  0  0
    3.8049   -1.3481    1.0825 H   0  0  0  0  0  0  0  0  0  0  0  0
    3.4938   -2.2876   -3.0232 H   0  0  0  0  0  0  0  0  0  0  0  0
    2.8715   -4.6618   -3.2218 H   0  0  0  0  0  0  0  0  0  0  0  0
    1.8416   -5.8283   -1.3135 H   0  0  0  0  0  0  0  0  0  0  0  0
    1.4420   -4.6232    0.7962 H   0  0  0  0  0  0  0  0  0  0  0  0
    2.0720   -2.2513    0.9976 H   0  0  0  0  0  0  0  0  0  0  0  0
   -2.6757    1.8923    0.5558 H   0  0  0  0  0  0  0  0  0  0  0  0
   -2.7856    1.1600   -1.0628 H   0  0  0  0  0  0  0  0  0  0  0  0
   -4.2253   -0.7917   -1.3925 H   0  0  0  0  0  0  0  0  0  0  0  0
   -3.0259   -1.6156   -0.3678 H   0  0  0  0  0  0  0  0  0  0  0  0
   -4.8114   -2.2459    1.2270 H   0  0  0  0  0  0  0  0  0  0  0  0
   -5.1839   -2.8490   -0.4065 H   0  0  0  0  0  0  0  0  0  0  0  0
   -6.6744   -0.9223   -0.7985 H   0  0  0  0  0  0  0  0  0  0  0  0
   -5.9665   -0.1532    2.0708 H   0  0  0  0  0  0  0  0  0  0  0  0
   -7.1337    0.6832    1.0178 H   0  0  0  0  0  0  0  0  0  0  0  0
   -4.9323    1.8379    1.0248 H   0  0  0  0  0  0  0  0  0  0  0  0
   -5.3246    1.1993   -0.5896 H   0  0  0  0  0  0  0  0  0  0  0  0
   -7.5830   -2.8114    0.3480 H   0  0  0  0  0  0  0  0  0  0  0  0
    4.1502   -1.1139    2.8684 H   0  0  0  0  0  0  0  0  0  0  0  0
    3.9687   -0.1532    4.3559 H   0  0  0  0  0  0  0  0  0  0  0  0
    2.5261   -0.7353    3.4908 H   0  0  0  0  0  0  0  0  0  0  0  0
    4.8161    2.4010    1.9402 H   0  0  0  0  0  0  0  0  0  0  0  0
    5.2666    1.6243    3.4770 H   0  0  0  0  0  0  0  0  0  0  0  0
    5.5242    0.7680    1.9380 H   0  0  0  0  0  0  0  0  0  0  0  0
    1.2913    2.5385   -3.2694 H   0  0  0  0  0  0  0  0  0  0  0  0
   -0.7088    3.9402   -3.5829 H   0  0  0  0  0  0  0  0  0  0  0  0
   -1.9723    4.7378   -1.6258 H   0  0  0  0  0  0  0  0  0  0  0  0
   -1.2409    4.1265    0.6445 H   0  0  0  0  0  0  0  0  0  0  0  0
    0.7543    2.7179    0.9578 H   0  0  0  0  0  0  0  0  0  0  0  0
  1  6  1  0  0  0  0
  1  2  1  0  0  0  0
  1 29  1  0  0  0  0
  1 35  1  0  0  0  0
  2  3  1  0  0  0  0
  2 36  1  0  0  0  0
  2 37  1  0  0  0  0
  3  8  1  0  0  0  0
  3  4  1  0  0  0  0
  3 26  1  0  0  0  0
  4  5  1  0  0  0  0
  4 38  1  0  0  0  0
  4 39  1  0  0  0  0
  5  6  1  0  0  0  0
  5 15  1  0  0  0  0
  5 40  1  0  0  0  0
  6  7  1  0  0  0  0
  6 41  1  0  0  0  0
  7  8  1  0  0  0  0
  7  9  1  0  0  0  0
  7 42  1  0  0  0  0
  8 43  1  0  0  0  0
  8 44  1  0  0  0  0
  9 14  2  0  0  0  0
  9 10  1  0  0  0  0
 10 11  2  0  0  0  0
 10 45  1  0  0  0  0
 11 12  1  0  0  0  0
 11 46  1  0  0  0  0
 12 13  2  0  0  0  0
 12 47  1  0  0  0  0
 13 14  1  0  0  0  0
 13 48  1  0  0  0  0
 14 49  1  0  0  0  0
 15 16  1  0  0  0  0
 16 17  2  0  0  0  0
 16 18  1  0  0  0  0
 18 19  1  0  0  0  0
 18 50  1  0  0  0  0
 18 51  1  0  0  0  0
 19 24  1  0  0  0  0
 19 20  1  0  0  0  0
 20 21  1  0  0  0  0
 20 52  1  0  0  0  0
 20 53  1  0  0  0  0
 21 22  1  0  0  0  0
 21 54  1  0  0  0  0
 21 55  1  0  0  0  0
 22 23  1  0  0  0  0
 22 25  1  0  0  0  0
 22 56  1  0  0  0  0
 23 24  1  0  0  0  0
 23 57  1  0  0  0  0
 23 58  1  0  0  0  0
 24 59  1  0  0  0  0
 24 60  1  0  0  0  0
 25 61  1  0  0  0  0
 26 27  1  0  0  0  0
 26 28  1  0  0  0  0
 27 62  1  0  0  0  0
 27 63  1  0  0  0  0
 27 64  1  0  0  0  0
 28 65  1  0  0  0  0
 28 66  1  0  0  0  0
 28 67  1  0  0  0  0
 29 34  2  0  0  0  0
 29 30  1  0  0  0  0
 30 31  2  0  0  0  0
 30 68  1  0  0  0  0
 31 32  1  0  0  0  0
 31 69  1  0  0  0  0
 32 33  2  0  0  0  0
 32 70  1  0  0  0  0
 33 34  1  0  0  0  0
 33 71  1  0  0  0  0
 34 72  1  0  0  0  0
M  END
