
  corina  02132002493D 1   1.00000     0.00000     0
CORINA evaluation license 4.00 0066  26.04.2017
 76 81  0  0  0  0            999 V2000
   -1.5015    0.3532   -1.0045 C   0  0  0  0  0  0  0  0  0  0  0  0
   -1.7380   -1.1440   -1.2130 C   0  0  0  0  0  0  0  0  0  0  0  0
   -1.3204   -1.9065    0.0460 C   0  0  0  0  0  0  0  0  0  0  0  0
    0.1635   -1.6584    0.3239 C   0  0  0  0  0  0  0  0  0  0  0  0
    0.4000   -0.1612    0.5324 C   0  0  0  0  0  0  0  0  0  0  0  0
   -0.9263    0.5888    0.3936 C   0  0  0  0  0  0  0  0  0  0  0  0
   -1.9139    0.0773    1.4442 C   0  0  0  0  0  0  0  0  0  0  0  0
   -2.1504   -1.4199    1.2357 C   0  0  0  0  0  0  0  0  0  0  0  0
   -3.2202    0.8160    1.3074 C   0  0  0  0  0  0  0  0  0  0  0  0
   -3.2602    2.1871    1.4793 C   0  0  0  0  0  0  0  0  0  0  0  0
   -4.4578    2.8653    1.3495 C   0  0  0  0  0  0  0  0  0  0  0  0
   -5.6170    2.1712    1.0573 C   0  0  0  0  0  0  0  0  0  0  0  0
   -5.5778    0.7996    0.8902 C   0  0  0  0  0  0  0  0  0  0  0  0
   -4.3796    0.1219    1.0157 C   0  0  0  0  0  0  0  0  0  0  0  0
    1.3373    0.3242   -0.4647 O   0  0  0  0  0  0  0  0  0  0  0  0
    2.6409    0.2817   -0.1475 C   0  0  0  0  0  0  0  0  0  0  0  0
    2.9873   -0.1469    0.9278 O   0  0  0  0  0  0  0  0  0  0  0  0
    3.6723    0.7686   -1.1324 C   0  0  0  0  0  0  0  0  0  0  0  0
    5.0133    0.6178   -0.5519 N   0  0  0  0  0  0  0  0  0  0  0  0
    5.1866    1.5007    0.6087 C   0  0  0  0  0  0  0  0  0  0  0  0
    6.5349    1.2132    1.2732 C   0  0  0  0  0  0  0  0  0  0  0  0
    7.6582    1.4460    0.2590 C   0  0  0  0  0  0  0  0  0  0  0  0
    7.4275    0.5498   -0.9610 C   0  0  0  0  0  0  0  0  0  0  0  0
    6.0533    0.8565   -1.5607 C   0  0  0  0  0  0  0  0  0  0  0  0
    8.9156    1.1244    0.8568 O   0  0  0  0  0  0  0  0  0  0  0  0
   -1.5475   -3.3439   -0.1542 N   0  0  0  0  0  0  0  0  0  0  0  0
   -1.2061   -4.1090    1.0640 C   0  0  0  0  0  0  0  0  0  0  0  0
   -0.6526   -5.4582    0.5416 C   0  0  0  0  0  0  0  0  0  0  0  0
    0.1294   -5.0085   -0.7206 C   0  0  0  0  0  0  0  0  0  0  0  0
   -0.7356   -3.8563   -1.2733 C   0  0  0  0  0  0  0  0  0  0  0  0
   -2.8078    1.0919   -1.1413 C   0  0  0  0  0  0  0  0  0  0  0  0
   -3.9676    0.3975   -1.4304 C   0  0  0  0  0  0  0  0  0  0  0  0
   -5.1667    1.0746   -1.5515 C   0  0  0  0  0  0  0  0  0  0  0  0
   -5.2043    2.4473   -1.3930 C   0  0  0  0  0  0  0  0  0  0  0  0
   -4.0437    3.1423   -1.1086 C   0  0  0  0  0  0  0  0  0  0  0  0
   -2.8454    2.4647   -0.9832 C   0  0  0  0  0  0  0  0  0  0  0  0
   -0.7979    0.7176   -1.7530 H   0  0  0  0  0  0  0  0  0  0  0  0
   -2.7952   -1.3207   -1.4110 H   0  0  0  0  0  0  0  0  0  0  0  0
   -1.1467   -1.4906   -2.0606 H   0  0  0  0  0  0  0  0  0  0  0  0
    0.7548   -2.0050   -0.5237 H   0  0  0  0  0  0  0  0  0  0  0  0
    0.4610   -2.2016    1.2209 H   0  0  0  0  0  0  0  0  0  0  0  0
    0.8098    0.0066    1.5284 H   0  0  0  0  0  0  0  0  0  0  0  0
   -0.7578    1.6554    0.5421 H   0  0  0  0  0  0  0  0  0  0  0  0
   -1.5041    0.2451    2.4402 H   0  0  0  0  0  0  0  0  0  0  0  0
   -3.2076   -1.5966    1.0377 H   0  0  0  0  0  0  0  0  0  0  0  0
   -1.8529   -1.9631    2.1327 H   0  0  0  0  0  0  0  0  0  0  0  0
   -2.3552    2.7288    1.7115 H   0  0  0  0  0  0  0  0  0  0  0  0
   -4.4883    3.9370    1.4797 H   0  0  0  0  0  0  0  0  0  0  0  0
   -6.5532    2.7007    0.9593 H   0  0  0  0  0  0  0  0  0  0  0  0
   -6.4835    0.2573    0.6620 H   0  0  0  0  0  0  0  0  0  0  0  0
   -4.3490   -0.9498    0.8856 H   0  0  0  0  0  0  0  0  0  0  0  0
    3.6050    0.1821   -2.0487 H   0  0  0  0  0  0  0  0  0  0  0  0
    3.4906    1.8191   -1.3592 H   0  0  0  0  0  0  0  0  0  0  0  0
    5.1571    2.5401    0.2819 H   0  0  0  0  0  0  0  0  0  0  0  0
    4.3838    1.3221    1.3240 H   0  0  0  0  0  0  0  0  0  0  0  0
    6.5599    0.1777    1.6126 H   0  0  0  0  0  0  0  0  0  0  0  0
    6.6701    1.8794    2.1252 H   0  0  0  0  0  0  0  0  0  0  0  0
    7.6579    2.4908   -0.0514 H   0  0  0  0  0  0  0  0  0  0  0  0
    7.4665   -0.4962   -0.6567 H   0  0  0  0  0  0  0  0  0  0  0  0
    8.2004    0.7420   -1.7051 H   0  0  0  0  0  0  0  0  0  0  0  0
    5.8800    0.2101   -2.4210 H   0  0  0  0  0  0  0  0  0  0  0  0
    6.0199    1.8990   -1.8771 H   0  0  0  0  0  0  0  0  0  0  0  0
    9.1273    1.6549    1.6371 H   0  0  0  0  0  0  0  0  0  0  0  0
   -0.4445   -3.5841    1.6407 H   0  0  0  0  0  0  0  0  0  0  0  0
   -2.0965   -4.2735    1.6708 H   0  0  0  0  0  0  0  0  0  0  0  0
   -1.4635   -6.1369    0.2774 H   0  0  0  0  0  0  0  0  0  0  0  0
    0.0147   -5.9161    1.2718 H   0  0  0  0  0  0  0  0  0  0  0  0
    0.1953   -5.8219   -1.4432 H   0  0  0  0  0  0  0  0  0  0  0  0
    1.1237   -4.6503   -0.4539 H   0  0  0  0  0  0  0  0  0  0  0  0
   -1.3871   -4.2281   -2.0642 H   0  0  0  0  0  0  0  0  0  0  0  0
   -0.0968   -3.0631   -1.6615 H   0  0  0  0  0  0  0  0  0  0  0  0
   -3.9375   -0.6745   -1.5583 H   0  0  0  0  0  0  0  0  0  0  0  0
   -6.0735    0.5316   -1.7734 H   0  0  0  0  0  0  0  0  0  0  0  0
   -6.1405    2.9767   -1.4910 H   0  0  0  0  0  0  0  0  0  0  0  0
   -4.0731    4.2148   -0.9848 H   0  0  0  0  0  0  0  0  0  0  0  0
   -1.9386    3.0077   -0.7614 H   0  0  0  0  0  0  0  0  0  0  0  0
  1  6  1  0  0  0  0
  1  2  1  0  0  0  0
  1 31  1  0  0  0  0
  1 37  1  0  0  0  0
  2  3  1  0  0  0  0
  2 38  1  0  0  0  0
  2 39  1  0  0  0  0
  3  8  1  0  0  0  0
  3  4  1  0  0  0  0
  3 26  1  0  0  0  0
  4  5  1  0  0  0  0
  4 40  1  0  0  0  0
  4 41  1  0  0  0  0
  5  6  1  0  0  0  0
  5 15  1  0  0  0  0
  5 42  1  0  0  0  0
  6  7  1  0  0  0  0
  6 43  1  0  0  0  0
  7  8  1  0  0  0  0
  7  9  1  0  0  0  0
  7 44  1  0  0  0  0
  8 45  1  0  0  0  0
  8 46  1  0  0  0  0
  9 14  2  0  0  0  0
  9 10  1  0  0  0  0
 10 11  2  0  0  0  0
 10 47  1  0  0  0  0
 11 12  1  0  0  0  0
 11 48  1  0  0  0  0
 12 13  2  0  0  0  0
 12 49  1  0  0  0  0
 13 14  1  0  0  0  0
 13 50  1  0  0  0  0
 14 51  1  0  0  0  0
 15 16  1  0  0  0  0
 16 17  2  0  0  0  0
 16 18  1  0  0  0  0
 18 19  1  0  0  0  0
 18 52  1  0  0  0  0
 18 53  1  0  0  0  0
 19 24  1  0  0  0  0
 19 20  1  0  0  0  0
 20 21  1  0  0  0  0
 20 54  1  0  0  0  0
 20 55  1  0  0  0  0
 21 22  1  0  0  0  0
 21 56  1  0  0  0  0
 21 57  1  0  0  0  0
 22 23  1  0  0  0  0
 22 25  1  0  0  0  0
 22 58  1  0  0  0  0
 23 24  1  0  0  0  0
 23 59  1  0  0  0  0
 23 60  1  0  0  0  0
 24 61  1  0  0  0  0
 24 62  1  0  0  0  0
 25 63  1  0  0  0  0
 26 30  1  0  0  0  0
 26 27  1  0  0  0  0
 27 28  1  0  0  0  0
 27 64  1  0  0  0  0
 27 65  1  0  0  0  0
 28 29  1  0  0  0  0
 28 66  1  0  0  0  0
 28 67  1  0  0  0  0
 29 30  1  0  0  0  0
 29 68  1  0  0  0  0
 29 69  1  0  0  0  0
 30 70  1  0  0  0  0
 30 71  1  0  0  0  0
 31 36  2  0  0  0  0
 31 32  1  0  0  0  0
 32 33  2  0  0  0  0
 32 72  1  0  0  0  0
 33 34  1  0  0  0  0
 33 73  1  0  0  0  0
 34 35  2  0  0  0  0
 34 74  1  0  0  0  0
 35 36  1  0  0  0  0
 35 75  1  0  0  0  0
 36 76  1  0  0  0  0
M  END
