
  corina  02132003143D 1   1.00000     0.00000     0
CORINA evaluation license 4.00 0066  26.04.2017
 80 85  0  0  0  0            999 V2000
   -2.9788    0.4383    1.4407 C   0  0  0  0  0  0  0  0  0  0  0  0
   -3.6009   -0.8328    0.8591 C   0  0  0  0  0  0  0  0  0  0  0  0
   -2.6889   -1.3926   -0.2344 C   0  0  0  0  0  0  0  0  0  0  0  0
   -1.3195   -1.7223    0.3629 C   0  0  0  0  0  0  0  0  0  0  0  0
   -0.6974   -0.4512    0.9446 C   0  0  0  0  0  0  0  0  0  0  0  0
   -1.6521    0.7258    0.7350 C   0  0  0  0  0  0  0  0  0  0  0  0
   -1.9022    0.9194   -0.7620 C   0  0  0  0  0  0  0  0  0  0  0  0
   -2.5243   -0.3517   -1.3436 C   0  0  0  0  0  0  0  0  0  0  0  0
   -0.5954    1.2026   -1.4571 C   0  0  0  0  0  0  0  0  0  0  0  0
   -0.1094    2.4953   -1.5151 C   0  0  0  0  0  0  0  0  0  0  0  0
    1.0915    2.7545   -2.1489 C   0  0  0  0  0  0  0  0  0  0  0  0
    1.8015    1.7222   -2.7330 C   0  0  0  0  0  0  0  0  0  0  0  0
    1.3131    0.4302   -2.6792 C   0  0  0  0  0  0  0  0  0  0  0  0
    0.1144    0.1704   -2.0416 C   0  0  0  0  0  0  0  0  0  0  0  0
    0.5617   -0.1784    0.2748 O   0  0  0  0  0  0  0  0  0  0  0  0
    1.6751   -0.6573    0.8517 C   0  0  0  0  0  0  0  0  0  0  0  0
    1.5947   -1.3438    1.8427 O   0  0  0  0  0  0  0  0  0  0  0  0
    3.0254   -0.3386    0.2633 C   0  0  0  0  0  0  0  0  0  0  0  0
    4.1082   -1.1021    1.0285 C   0  0  0  0  0  0  0  0  0  0  0  0
    5.4244   -0.7915    0.4550 N   0  0  0  0  0  0  0  0  0  0  0  0
    5.5779    0.6543    0.2414 C   0  0  0  0  0  0  0  0  0  0  0  0
    6.9264    0.9279   -0.4288 C   0  0  0  0  0  0  0  0  0  0  0  0
    8.0070    0.4062    0.4196 N   0  0  0  0  0  0  0  0  0  0  0  0
    7.8535   -1.0396    0.6332 C   0  0  0  0  0  0  0  0  0  0  0  0
    6.5050   -1.3133    1.3034 C   0  0  0  0  0  0  0  0  0  0  0  0
    9.3232    0.7168   -0.1540 C   0  0  0  0  0  0  0  0  0  0  0  0
   -3.2862   -2.6130   -0.7929 N   0  0  0  0  0  0  0  0  0  0  0  0
   -4.5708   -2.3160   -1.4617 C   0  0  0  0  0  0  0  0  0  0  0  0
   -5.4435   -3.5723   -1.2178 C   0  0  0  0  0  0  0  0  0  0  0  0
   -5.0286   -3.9671    0.2240 C   0  0  0  0  0  0  0  0  0  0  0  0
   -3.5268   -3.6142    0.2624 C   0  0  0  0  0  0  0  0  0  0  0  0
   -3.9192    1.5977    1.2343 C   0  0  0  0  0  0  0  0  0  0  0  0
   -4.0763    2.5456    2.2281 C   0  0  0  0  0  0  0  0  0  0  0  0
   -4.9356    3.6114    2.0370 C   0  0  0  0  0  0  0  0  0  0  0  0
   -5.6450    3.7242    0.8559 C   0  0  0  0  0  0  0  0  0  0  0  0
   -5.4915    2.7737   -0.1360 C   0  0  0  0  0  0  0  0  0  0  0  0
   -4.6289    1.7102    0.0534 C   0  0  0  0  0  0  0  0  0  0  0  0
   -2.8007    0.3004    2.5072 H   0  0  0  0  0  0  0  0  0  0  0  0
   -3.7182   -1.5743    1.6493 H   0  0  0  0  0  0  0  0  0  0  0  0
   -4.5765   -0.5979    0.4335 H   0  0  0  0  0  0  0  0  0  0  0  0
   -0.6697   -2.1211   -0.4161 H   0  0  0  0  0  0  0  0  0  0  0  0
   -1.4368   -2.4638    1.1532 H   0  0  0  0  0  0  0  0  0  0  0  0
   -0.5192   -0.5891    2.0111 H   0  0  0  0  0  0  0  0  0  0  0  0
   -1.2089    1.6314    1.1494 H   0  0  0  0  0  0  0  0  0  0  0  0
   -2.5824    1.7579   -0.9113 H   0  0  0  0  0  0  0  0  0  0  0  0
   -1.8746   -0.7506   -2.1226 H   0  0  0  0  0  0  0  0  0  0  0  0
   -3.4999   -0.1168   -1.7692 H   0  0  0  0  0  0  0  0  0  0  0  0
   -0.6662    3.3024   -1.0623 H   0  0  0  0  0  0  0  0  0  0  0  0
    1.4732    3.7639   -2.1907 H   0  0  0  0  0  0  0  0  0  0  0  0
    2.7381    1.9252   -3.2312 H   0  0  0  0  0  0  0  0  0  0  0  0
    1.8679   -0.3763   -3.1355 H   0  0  0  0  0  0  0  0  0  0  0  0
   -0.2673   -0.8390   -1.9998 H   0  0  0  0  0  0  0  0  0  0  0  0
    3.0439   -0.6352   -0.7854 H   0  0  0  0  0  0  0  0  0  0  0  0
    3.2121    0.7324    0.3413 H   0  0  0  0  0  0  0  0  0  0  0  0
    4.0896   -0.8055    2.0772 H   0  0  0  0  0  0  0  0  0  0  0  0
    3.9214   -2.1732    0.9505 H   0  0  0  0  0  0  0  0  0  0  0  0
    4.7734    1.0146   -0.3998 H   0  0  0  0  0  0  0  0  0  0  0  0
    5.5374    1.1700    1.2008 H   0  0  0  0  0  0  0  0  0  0  0  0
    7.0550    2.0021   -0.5619 H   0  0  0  0  0  0  0  0  0  0  0  0
    6.9567    0.4349   -1.4005 H   0  0  0  0  0  0  0  0  0  0  0  0
    8.6580   -1.3999    1.2743 H   0  0  0  0  0  0  0  0  0  0  0  0
    7.8942   -1.5556   -0.3261 H   0  0  0  0  0  0  0  0  0  0  0  0
    6.4750   -0.8200    2.2749 H   0  0  0  0  0  0  0  0  0  0  0  0
    6.3764   -2.3874    1.4365 H   0  0  0  0  0  0  0  0  0  0  0  0
    9.4312    0.2086   -1.1121 H   0  0  0  0  0  0  0  0  0  0  0  0
    9.4103    1.7932   -0.3018 H   0  0  0  0  0  0  0  0  0  0  0  0
   10.1049    0.3791    0.5265 H   0  0  0  0  0  0  0  0  0  0  0  0
   -5.0369   -1.4376   -1.0152 H   0  0  0  0  0  0  0  0  0  0  0  0
   -4.4161   -2.1629   -2.5297 H   0  0  0  0  0  0  0  0  0  0  0  0
   -5.1958   -4.3632   -1.9258 H   0  0  0  0  0  0  0  0  0  0  0  0
   -6.5044   -3.3268   -1.2654 H   0  0  0  0  0  0  0  0  0  0  0  0
   -5.1781   -5.0340    0.3895 H   0  0  0  0  0  0  0  0  0  0  0  0
   -5.5807   -3.3831    0.9603 H   0  0  0  0  0  0  0  0  0  0  0  0
   -2.9311   -4.5065    0.0698 H   0  0  0  0  0  0  0  0  0  0  0  0
   -3.2661   -3.1974    1.2353 H   0  0  0  0  0  0  0  0  0  0  0  0
   -3.5252    2.4553    3.1525 H   0  0  0  0  0  0  0  0  0  0  0  0
   -5.0553    4.3542    2.8118 H   0  0  0  0  0  0  0  0  0  0  0  0
   -6.3189    4.5551    0.7079 H   0  0  0  0  0  0  0  0  0  0  0  0
   -6.0457    2.8617   -1.0588 H   0  0  0  0  0  0  0  0  0  0  0  0
   -4.5092    0.9674   -0.7214 H   0  0  0  0  0  0  0  0  0  0  0  0
  1  6  1  0  0  0  0
  1  2  1  0  0  0  0
  1 32  1  0  0  0  0
  1 38  1  0  0  0  0
  2  3  1  0  0  0  0
  2 39  1  0  0  0  0
  2 40  1  0  0  0  0
  3  8  1  0  0  0  0
  3  4  1  0  0  0  0
  3 27  1  0  0  0  0
  4  5  1  0  0  0  0
  4 41  1  0  0  0  0
  4 42  1  0  0  0  0
  5  6  1  0  0  0  0
  5 15  1  0  0  0  0
  5 43  1  0  0  0  0
  6  7  1  0  0  0  0
  6 44  1  0  0  0  0
  7  8  1  0  0  0  0
  7  9  1  0  0  0  0
  7 45  1  0  0  0  0
  8 46  1  0  0  0  0
  8 47  1  0  0  0  0
  9 14  2  0  0  0  0
  9 10  1  0  0  0  0
 10 11  2  0  0  0  0
 10 48  1  0  0  0  0
 11 12  1  0  0  0  0
 11 49  1  0  0  0  0
 12 13  2  0  0  0  0
 12 50  1  0  0  0  0
 13 14  1  0  0  0  0
 13 51  1  0  0  0  0
 14 52  1  0  0  0  0
 15 16  1  0  0  0  0
 16 17  2  0  0  0  0
 16 18  1  0  0  0  0
 18 19  1  0  0  0  0
 18 53  1  0  0  0  0
 18 54  1  0  0  0  0
 19 20  1  0  0  0  0
 19 55  1  0  0  0  0
 19 56  1  0  0  0  0
 20 25  1  0  0  0  0
 20 21  1  0  0  0  0
 21 22  1  0  0  0  0
 21 57  1  0  0  0  0
 21 58  1  0  0  0  0
 22 23  1  0  0  0  0
 22 59  1  0  0  0  0
 22 60  1  0  0  0  0
 23 24  1  0  0  0  0
 23 26  1  0  0  0  0
 24 25  1  0  0  0  0
 24 61  1  0  0  0  0
 24 62  1  0  0  0  0
 25 63  1  0  0  0  0
 25 64  1  0  0  0  0
 26 65  1  0  0  0  0
 26 66  1  0  0  0  0
 26 67  1  0  0  0  0
 27 31  1  0  0  0  0
 27 28  1  0  0  0  0
 28 29  1  0  0  0  0
 28 68  1  0  0  0  0
 28 69  1  0  0  0  0
 29 30  1  0  0  0  0
 29 70  1  0  0  0  0
 29 71  1  0  0  0  0
 30 31  1  0  0  0  0
 30 72  1  0  0  0  0
 30 73  1  0  0  0  0
 31 74  1  0  0  0  0
 31 75  1  0  0  0  0
 32 37  2  0  0  0  0
 32 33  1  0  0  0  0
 33 34  2  0  0  0  0
 33 76  1  0  0  0  0
 34 35  1  0  0  0  0
 34 77  1  0  0  0  0
 35 36  2  0  0  0  0
 35 78  1  0  0  0  0
 36 37  1  0  0  0  0
 36 79  1  0  0  0  0
 37 80  1  0  0  0  0
M  END
