
  corina  02132003193D 1   1.00000     0.00000     0
CORINA evaluation license 4.00 0066  26.04.2017
 78 83  0  0  0  0            999 V2000
   -2.5177   -0.9667   -1.4979 C   0  0  0  0  0  0  0  0  0  0  0  0
   -2.8966    0.5135   -1.4179 C   0  0  0  0  0  0  0  0  0  0  0  0
   -1.8933    1.2494   -0.5276 C   0  0  0  0  0  0  0  0  0  0  0  0
   -0.4895    1.1137   -1.1209 C   0  0  0  0  0  0  0  0  0  0  0  0
   -0.1106   -0.3665   -1.2009 C   0  0  0  0  0  0  0  0  0  0  0  0
   -1.2618   -1.2175   -0.6609 C   0  0  0  0  0  0  0  0  0  0  0  0
   -1.5358   -0.8392    0.7961 C   0  0  0  0  0  0  0  0  0  0  0  0
   -1.9148    0.6410    0.8760 C   0  0  0  0  0  0  0  0  0  0  0  0
   -0.2988   -1.0863    1.6205 C   0  0  0  0  0  0  0  0  0  0  0  0
   -0.0477   -2.3468    2.1295 C   0  0  0  0  0  0  0  0  0  0  0  0
    1.0892   -2.5745    2.8820 C   0  0  0  0  0  0  0  0  0  0  0  0
    1.9703   -1.5394    3.1336 C   0  0  0  0  0  0  0  0  0  0  0  0
    1.7168   -0.2778    2.6287 C   0  0  0  0  0  0  0  0  0  0  0  0
    0.5820   -0.0511    1.8725 C   0  0  0  0  0  0  0  0  0  0  0  0
    1.0813   -0.6046   -0.4065 O   0  0  0  0  0  0  0  0  0  0  0  0
    2.2602   -0.5530   -1.0462 C   0  0  0  0  0  0  0  0  0  0  0  0
    2.2911   -0.4077   -2.2453 O   0  0  0  0  0  0  0  0  0  0  0  0
    3.5453   -0.6765   -0.2688 C   0  0  0  0  0  0  0  0  0  0  0  0
    4.7329   -0.4600   -1.2089 C   0  0  0  0  0  0  0  0  0  0  0  0
    5.9856   -0.5804   -0.4511 N   0  0  0  0  0  0  0  0  0  0  0  0
    6.1502    0.5529    0.4839 C   0  0  0  0  0  0  0  0  0  0  0  0
    7.6773    0.8081    0.5314 C   0  0  0  0  0  0  0  0  0  0  0  0
    8.0860    0.5386   -0.9408 C   0  0  0  0  0  0  0  0  0  0  0  0
    7.1492   -0.6153   -1.3559 C   0  0  0  0  0  0  0  0  0  0  0  0
   -2.2571    2.6706   -0.4509 N   0  0  0  0  0  0  0  0  0  0  0  0
   -3.6377    2.8356    0.0213 C   0  0  0  0  0  0  0  0  0  0  0  0
   -4.0293    4.3133   -0.0497 C   0  0  0  0  0  0  0  0  0  0  0  0
   -3.0714    5.1325    0.8198 C   0  0  0  0  0  0  0  0  0  0  0  0
   -1.6360    4.9051    0.3377 C   0  0  0  0  0  0  0  0  0  0  0  0
   -1.3138    3.4102    0.3974 C   0  0  0  0  0  0  0  0  0  0  0  0
   -3.6515   -1.8049   -0.9660 C   0  0  0  0  0  0  0  0  0  0  0  0
   -3.9965   -2.9835   -1.6005 C   0  0  0  0  0  0  0  0  0  0  0  0
   -5.0337   -3.7546   -1.1101 C   0  0  0  0  0  0  0  0  0  0  0  0
   -5.7321   -3.3422    0.0093 C   0  0  0  0  0  0  0  0  0  0  0  0
   -5.3902   -2.1612    0.6411 C   0  0  0  0  0  0  0  0  0  0  0  0
   -4.3502   -1.3923    0.1532 C   0  0  0  0  0  0  0  0  0  0  0  0
   -2.3224   -1.2362   -2.5358 H   0  0  0  0  0  0  0  0  0  0  0  0
   -3.8967    0.6102   -0.9952 H   0  0  0  0  0  0  0  0  0  0  0  0
   -2.8813    0.9470   -2.4179 H   0  0  0  0  0  0  0  0  0  0  0  0
    0.2253    1.6379   -0.4867 H   0  0  0  0  0  0  0  0  0  0  0  0
   -0.4742    1.5471   -2.1209 H   0  0  0  0  0  0  0  0  0  0  0  0
    0.0846   -0.6360   -2.2388 H   0  0  0  0  0  0  0  0  0  0  0  0
   -0.9918   -2.2720   -0.7178 H   0  0  0  0  0  0  0  0  0  0  0  0
   -2.3559   -1.4455    1.1808 H   0  0  0  0  0  0  0  0  0  0  0  0
   -1.2000    1.1653    1.5103 H   0  0  0  0  0  0  0  0  0  0  0  0
   -2.9148    0.7377    1.2987 H   0  0  0  0  0  0  0  0  0  0  0  0
   -0.7382   -3.1545    1.9363 H   0  0  0  0  0  0  0  0  0  0  0  0
    1.2875   -3.5602    3.2763 H   0  0  0  0  0  0  0  0  0  0  0  0
    2.8569   -1.7165    3.7244 H   0  0  0  0  0  0  0  0  0  0  0  0
    2.4052    0.5309    2.8252 H   0  0  0  0  0  0  0  0  0  0  0  0
    0.3838    0.9346    1.4782 H   0  0  0  0  0  0  0  0  0  0  0  0
    3.5657    0.0743    0.5211 H   0  0  0  0  0  0  0  0  0  0  0  0
    3.6084   -1.6708    0.1733 H   0  0  0  0  0  0  0  0  0  0  0  0
    4.7125   -1.2108   -1.9988 H   0  0  0  0  0  0  0  0  0  0  0  0
    4.6698    0.5343   -1.6510 H   0  0  0  0  0  0  0  0  0  0  0  0
    5.6298    1.4338    0.1078 H   0  0  0  0  0  0  0  0  0  0  0  0
    5.7792    0.2856    1.4733 H   0  0  0  0  0  0  0  0  0  0  0  0
    8.1692    0.1087    1.2074 H   0  0  0  0  0  0  0  0  0  0  0  0
    7.8925    1.8386    0.8139 H   0  0  0  0  0  0  0  0  0  0  0  0
    9.1292    0.2286   -1.0006 H   0  0  0  0  0  0  0  0  0  0  0  0
    7.9087    1.4197   -1.5574 H   0  0  0  0  0  0  0  0  0  0  0  0
    7.6682   -1.5686   -1.2559 H   0  0  0  0  0  0  0  0  0  0  0  0
    6.8218   -0.4779   -2.3865 H   0  0  0  0  0  0  0  0  0  0  0  0
   -4.3091    2.2514   -0.6080 H   0  0  0  0  0  0  0  0  0  0  0  0
   -3.7130    2.4891    1.0520 H   0  0  0  0  0  0  0  0  0  0  0  0
   -5.0488    4.4376    0.3155 H   0  0  0  0  0  0  0  0  0  0  0  0
   -3.9682    4.6574   -1.0821 H   0  0  0  0  0  0  0  0  0  0  0  0
   -3.1612    4.8155    1.8588 H   0  0  0  0  0  0  0  0  0  0  0  0
   -3.3198    6.1907    0.7380 H   0  0  0  0  0  0  0  0  0  0  0  0
   -0.9456    5.4521    0.9796 H   0  0  0  0  0  0  0  0  0  0  0  0
   -1.5367    5.2580   -0.6888 H   0  0  0  0  0  0  0  0  0  0  0  0
   -1.3999    3.0610    1.4264 H   0  0  0  0  0  0  0  0  0  0  0  0
   -0.2973    3.2433    0.0413 H   0  0  0  0  0  0  0  0  0  0  0  0
   -3.4535   -3.3037   -2.4775 H   0  0  0  0  0  0  0  0  0  0  0  0
   -5.3006   -4.6775   -1.6034 H   0  0  0  0  0  0  0  0  0  0  0  0
   -6.5447   -3.9430    0.3905 H   0  0  0  0  0  0  0  0  0  0  0  0
   -5.9359   -1.8390    1.5156 H   0  0  0  0  0  0  0  0  0  0  0  0
   -4.0834   -0.4694    0.6465 H   0  0  0  0  0  0  0  0  0  0  0  0
  1  6  1  0  0  0  0
  1  2  1  0  0  0  0
  1 31  1  0  0  0  0
  1 37  1  0  0  0  0
  2  3  1  0  0  0  0
  2 38  1  0  0  0  0
  2 39  1  0  0  0  0
  3  8  1  0  0  0  0
  3  4  1  0  0  0  0
  3 25  1  0  0  0  0
  4  5  1  0  0  0  0
  4 40  1  0  0  0  0
  4 41  1  0  0  0  0
  5  6  1  0  0  0  0
  5 15  1  0  0  0  0
  5 42  1  0  0  0  0
  6  7  1  0  0  0  0
  6 43  1  0  0  0  0
  7  8  1  0  0  0  0
  7  9  1  0  0  0  0
  7 44  1  0  0  0  0
  8 45  1  0  0  0  0
  8 46  1  0  0  0  0
  9 14  2  0  0  0  0
  9 10  1  0  0  0  0
 10 11  2  0  0  0  0
 10 47  1  0  0  0  0
 11 12  1  0  0  0  0
 11 48  1  0  0  0  0
 12 13  2  0  0  0  0
 12 49  1  0  0  0  0
 13 14  1  0  0  0  0
 13 50  1  0  0  0  0
 14 51  1  0  0  0  0
 15 16  1  0  0  0  0
 16 17  2  0  0  0  0
 16 18  1  0  0  0  0
 18 19  1  0  0  0  0
 18 52  1  0  0  0  0
 18 53  1  0  0  0  0
 19 20  1  0  0  0  0
 19 54  1  0  0  0  0
 19 55  1  0  0  0  0
 20 24  1  0  0  0  0
 20 21  1  0  0  0  0
 21 22  1  0  0  0  0
 21 56  1  0  0  0  0
 21 57  1  0  0  0  0
 22 23  1  0  0  0  0
 22 58  1  0  0  0  0
 22 59  1  0  0  0  0
 23 24  1  0  0  0  0
 23 60  1  0  0  0  0
 23 61  1  0  0  0  0
 24 62  1  0  0  0  0
 24 63  1  0  0  0  0
 25 30  1  0  0  0  0
 25 26  1  0  0  0  0
 26 27  1  0  0  0  0
 26 64  1  0  0  0  0
 26 65  1  0  0  0  0
 27 28  1  0  0  0  0
 27 66  1  0  0  0  0
 27 67  1  0  0  0  0
 28 29  1  0  0  0  0
 28 68  1  0  0  0  0
 28 69  1  0  0  0  0
 29 30  1  0  0  0  0
 29 70  1  0  0  0  0
 29 71  1  0  0  0  0
 30 72  1  0  0  0  0
 30 73  1  0  0  0  0
 31 36  2  0  0  0  0
 31 32  1  0  0  0  0
 32 33  2  0  0  0  0
 32 74  1  0  0  0  0
 33 34  1  0  0  0  0
 33 75  1  0  0  0  0
 34 35  2  0  0  0  0
 34 76  1  0  0  0  0
 35 36  1  0  0  0  0
 35 77  1  0  0  0  0
 36 78  1  0  0  0  0
M  END
