
  corina  02132004083D 1   1.00000     0.00000     0
CORINA evaluation license 4.00 0066  26.04.2017
 74 78  0  0  0  0            999 V2000
    2.2108   -0.2760   -1.4573 C   0  0  0  0  0  0  0  0  0  0  0  0
    2.5091   -1.7463   -1.1567 C   0  0  0  0  0  0  0  0  0  0  0  0
    1.6206   -2.2219   -0.0056 C   0  0  0  0  0  0  0  0  0  0  0  0
    0.1501   -2.0702   -0.4001 C   0  0  0  0  0  0  0  0  0  0  0  0
   -0.1482   -0.6000   -0.7006 C   0  0  0  0  0  0  0  0  0  0  0  0
    1.1234    0.2284   -0.5065 C   0  0  0  0  0  0  0  0  0  0  0  0
    1.6059    0.0911    0.9389 C   0  0  0  0  0  0  0  0  0  0  0  0
    1.9042   -1.3791    1.2395 C   0  0  0  0  0  0  0  0  0  0  0  0
    2.8583    0.9071    1.1301 C   0  0  0  0  0  0  0  0  0  0  0  0
    3.9336    0.3726    1.8150 C   0  0  0  0  0  0  0  0  0  0  0  0
    5.0841    1.1195    1.9866 C   0  0  0  0  0  0  0  0  0  0  0  0
    5.1558    2.4043    1.4815 C   0  0  0  0  0  0  0  0  0  0  0  0
    4.0787    2.9405    0.8008 C   0  0  0  0  0  0  0  0  0  0  0  0
    2.9299    2.1920    0.6254 C   0  0  0  0  0  0  0  0  0  0  0  0
   -1.1802   -0.1213    0.2016 O   0  0  0  0  0  0  0  0  0  0  0  0
   -2.4529   -0.2511   -0.2045 C   0  0  0  0  0  0  0  0  0  0  0  0
   -2.6966   -0.7484   -1.2784 O   0  0  0  0  0  0  0  0  0  0  0  0
   -3.5776    0.2289    0.6762 C   0  0  0  0  0  0  0  0  0  0  0  0
   -4.9158   -0.0289   -0.0194 C   0  0  0  0  0  0  0  0  0  0  0  0
   -6.0576    0.4585    0.8747 C   0  0  0  0  0  0  0  0  0  0  0  0
   -7.3424    0.2110    0.2068 N   0  0  0  0  0  0  0  0  0  0  0  0
   -7.5054    1.0901   -0.9706 C   0  0  0  0  0  0  0  0  0  0  0  0
   -9.0239    1.3901   -1.0331 C   0  0  0  0  0  0  0  0  0  0  0  0
   -9.3833    1.5025    0.4719 C   0  0  0  0  0  0  0  0  0  0  0  0
   -8.4701    0.4451    1.1273 C   0  0  0  0  0  0  0  0  0  0  0  0
    1.9070   -3.6336    0.2830 N   0  0  0  0  0  0  0  0  0  0  0  0
    1.0703   -4.1258    1.3856 C   0  0  0  0  0  0  0  0  0  0  0  0
    1.7356   -4.4617   -0.9181 C   0  0  0  0  0  0  0  0  0  0  0  0
    3.4633    0.5399   -1.2661 C   0  0  0  0  0  0  0  0  0  0  0  0
    3.5391    1.8207   -1.7807 C   0  0  0  0  0  0  0  0  0  0  0  0
    4.6863    2.5708   -1.6015 C   0  0  0  0  0  0  0  0  0  0  0  0
    5.7613    2.0366   -0.9161 C   0  0  0  0  0  0  0  0  0  0  0  0
    5.6873    0.7541   -0.4056 C   0  0  0  0  0  0  0  0  0  0  0  0
    4.5385    0.0056   -0.5810 C   0  0  0  0  0  0  0  0  0  0  0  0
    1.8671   -0.1782   -2.4870 H   0  0  0  0  0  0  0  0  0  0  0  0
    2.3071   -2.3467   -2.0437 H   0  0  0  0  0  0  0  0  0  0  0  0
    3.5567   -1.8544   -0.8757 H   0  0  0  0  0  0  0  0  0  0  0  0
   -0.4829   -2.4091    0.4200 H   0  0  0  0  0  0  0  0  0  0  0  0
   -0.0519   -2.6707   -1.2871 H   0  0  0  0  0  0  0  0  0  0  0  0
   -0.4919   -0.5022   -1.7304 H   0  0  0  0  0  0  0  0  0  0  0  0
    0.9109    1.2758   -0.7207 H   0  0  0  0  0  0  0  0  0  0  0  0
    0.8312    0.4505    1.6162 H   0  0  0  0  0  0  0  0  0  0  0  0
    1.2711   -1.7180    2.0595 H   0  0  0  0  0  0  0  0  0  0  0  0
    2.9518   -1.4872    1.5205 H   0  0  0  0  0  0  0  0  0  0  0  0
    3.8760   -0.6297    2.2131 H   0  0  0  0  0  0  0  0  0  0  0  0
    5.9257    0.7005    2.5181 H   0  0  0  0  0  0  0  0  0  0  0  0
    6.0534    2.9891    1.6185 H   0  0  0  0  0  0  0  0  0  0  0  0
    4.1348    3.9443    0.4062 H   0  0  0  0  0  0  0  0  0  0  0  0
    2.0883    2.6110    0.0939 H   0  0  0  0  0  0  0  0  0  0  0  0
   -3.5515   -0.3085    1.6242 H   0  0  0  0  0  0  0  0  0  0  0  0
   -3.4640    1.2971    0.8608 H   0  0  0  0  0  0  0  0  0  0  0  0
   -4.9419    0.5085   -0.9674 H   0  0  0  0  0  0  0  0  0  0  0  0
   -5.0294   -1.0971   -0.2041 H   0  0  0  0  0  0  0  0  0  0  0  0
   -6.0315   -0.0789    1.8227 H   0  0  0  0  0  0  0  0  0  0  0  0
   -5.9439    1.5267    1.0594 H   0  0  0  0  0  0  0  0  0  0  0  0
   -6.9415    2.0132   -0.8360 H   0  0  0  0  0  0  0  0  0  0  0  0
   -7.1827    0.5758   -1.8758 H   0  0  0  0  0  0  0  0  0  0  0  0
   -9.5650    0.5692   -1.5035 H   0  0  0  0  0  0  0  0  0  0  0  0
   -9.2153    2.3297   -1.5514 H   0  0  0  0  0  0  0  0  0  0  0  0
  -10.4332    1.2603    0.6366 H   0  0  0  0  0  0  0  0  0  0  0  0
   -9.1546    2.4981    0.8522 H   0  0  0  0  0  0  0  0  0  0  0  0
   -9.0244   -0.4813    1.2779 H   0  0  0  0  0  0  0  0  0  0  0  0
   -8.0982    0.8141    2.0832 H   0  0  0  0  0  0  0  0  0  0  0  0
    0.0189   -4.0309    1.1142 H   0  0  0  0  0  0  0  0  0  0  0  0
    1.3027   -5.1731    1.5784 H   0  0  0  0  0  0  0  0  0  0  0  0
    1.2685   -3.5385    2.2822 H   0  0  0  0  0  0  0  0  0  0  0  0
    2.4175   -4.1188   -1.6963 H   0  0  0  0  0  0  0  0  0  0  0  0
    1.9539   -5.5019   -0.6764 H   0  0  0  0  0  0  0  0  0  0  0  0
    0.7083   -4.3790   -1.2730 H   0  0  0  0  0  0  0  0  0  0  0  0
    2.7007    2.2365   -2.3198 H   0  0  0  0  0  0  0  0  0  0  0  0
    4.7440    3.5729   -2.0001 H   0  0  0  0  0  0  0  0  0  0  0  0
    6.6589    2.6214   -0.7790 H   0  0  0  0  0  0  0  0  0  0  0  0
    6.5272    0.3367    0.1300 H   0  0  0  0  0  0  0  0  0  0  0  0
    4.4808   -0.9965   -0.1825 H   0  0  0  0  0  0  0  0  0  0  0  0
  1  6  1  0  0  0  0
  1  2  1  0  0  0  0
  1 29  1  0  0  0  0
  1 35  1  0  0  0  0
  2  3  1  0  0  0  0
  2 36  1  0  0  0  0
  2 37  1  0  0  0  0
  3  8  1  0  0  0  0
  3  4  1  0  0  0  0
  3 26  1  0  0  0  0
  4  5  1  0  0  0  0
  4 38  1  0  0  0  0
  4 39  1  0  0  0  0
  5  6  1  0  0  0  0
  5 15  1  0  0  0  0
  5 40  1  0  0  0  0
  6  7  1  0  0  0  0
  6 41  1  0  0  0  0
  7  8  1  0  0  0  0
  7  9  1  0  0  0  0
  7 42  1  0  0  0  0
  8 43  1  0  0  0  0
  8 44  1  0  0  0  0
  9 14  2  0  0  0  0
  9 10  1  0  0  0  0
 10 11  2  0  0  0  0
 10 45  1  0  0  0  0
 11 12  1  0  0  0  0
 11 46  1  0  0  0  0
 12 13  2  0  0  0  0
 12 47  1  0  0  0  0
 13 14  1  0  0  0  0
 13 48  1  0  0  0  0
 14 49  1  0  0  0  0
 15 16  1  0  0  0  0
 16 17  2  0  0  0  0
 16 18  1  0  0  0  0
 18 19  1  0  0  0  0
 18 50  1  0  0  0  0
 18 51  1  0  0  0  0
 19 20  1  0  0  0  0
 19 52  1  0  0  0  0
 19 53  1  0  0  0  0
 20 21  1  0  0  0  0
 20 54  1  0  0  0  0
 20 55  1  0  0  0  0
 21 25  1  0  0  0  0
 21 22  1  0  0  0  0
 22 23  1  0  0  0  0
 22 56  1  0  0  0  0
 22 57  1  0  0  0  0
 23 24  1  0  0  0  0
 23 58  1  0  0  0  0
 23 59  1  0  0  0  0
 24 25  1  0  0  0  0
 24 60  1  0  0  0  0
 24 61  1  0  0  0  0
 25 62  1  0  0  0  0
 25 63  1  0  0  0  0
 26 27  1  0  0  0  0
 26 28  1  0  0  0  0
 27 64  1  0  0  0  0
 27 65  1  0  0  0  0
 27 66  1  0  0  0  0
 28 67  1  0  0  0  0
 28 68  1  0  0  0  0
 28 69  1  0  0  0  0
 29 34  2  0  0  0  0
 29 30  1  0  0  0  0
 30 31  2  0  0  0  0
 30 70  1  0  0  0  0
 31 32  1  0  0  0  0
 31 71  1  0  0  0  0
 32 33  2  0  0  0  0
 32 72  1  0  0  0  0
 33 34  1  0  0  0  0
 33 73  1  0  0  0  0
 34 74  1  0  0  0  0
M  END
