
  corina  02132004113D 1   1.00000     0.00000     0
CORINA evaluation license 4.00 0066  26.04.2017
 81 86  0  0  0  0            999 V2000
    2.4028   -0.0809   -1.4763 C   0  0  0  0  0  0  0  0  0  0  0  0
    2.7049    1.3956   -1.2126 C   0  0  0  0  0  0  0  0  0  0  0  0
    1.8501    1.8904   -0.0442 C   0  0  0  0  0  0  0  0  0  0  0  0
    0.3689    1.7270   -0.3909 C   0  0  0  0  0  0  0  0  0  0  0  0
    0.0667    0.2505   -0.6545 C   0  0  0  0  0  0  0  0  0  0  0  0
    1.3464   -0.5704   -0.4837 C   0  0  0  0  0  0  0  0  0  0  0  0
    1.8721   -0.4044    0.9436 C   0  0  0  0  0  0  0  0  0  0  0  0
    2.1742    1.0721    1.2073 C   0  0  0  0  0  0  0  0  0  0  0  0
    3.1326   -1.2130    1.1119 C   0  0  0  0  0  0  0  0  0  0  0  0
    3.1010   -2.5850    0.9459 C   0  0  0  0  0  0  0  0  0  0  0  0
    4.2582   -3.3262    1.0960 C   0  0  0  0  0  0  0  0  0  0  0  0
    5.4450   -2.6965    1.4215 C   0  0  0  0  0  0  0  0  0  0  0  0
    5.4755   -1.3250    1.5922 C   0  0  0  0  0  0  0  0  0  0  0  0
    4.3193   -0.5834    1.4379 C   0  0  0  0  0  0  0  0  0  0  0  0
   -0.9358   -0.2142    0.2875 O   0  0  0  0  0  0  0  0  0  0  0  0
   -2.2207   -0.0957   -0.0821 C   0  0  0  0  0  0  0  0  0  0  0  0
   -2.4986    0.3805   -1.1572 O   0  0  0  0  0  0  0  0  0  0  0  0
   -3.3167   -0.5565    0.8438 C   0  0  0  0  0  0  0  0  0  0  0  0
   -4.6764   -0.3108    0.1868 C   0  0  0  0  0  0  0  0  0  0  0  0
   -5.7892   -0.7787    1.1269 C   0  0  0  0  0  0  0  0  0  0  0  0
   -7.0947   -0.5427    0.4961 N   0  0  0  0  0  0  0  0  0  0  0  0
   -7.0913   -0.9885   -0.9031 C   0  0  0  0  0  0  0  0  0  0  0  0
   -8.4127   -0.5964   -1.5680 C   0  0  0  0  0  0  0  0  0  0  0  0
   -9.5730   -1.2459   -0.8087 C   0  0  0  0  0  0  0  0  0  0  0  0
   -9.5251   -0.8035    0.6564 C   0  0  0  0  0  0  0  0  0  0  0  0
   -8.1714   -1.1895    1.2568 C   0  0  0  0  0  0  0  0  0  0  0  0
    2.1402    3.3080    0.2090 N   0  0  0  0  0  0  0  0  0  0  0  0
    1.3712    3.8073    1.3688 C   0  0  0  0  0  0  0  0  0  0  0  0
    1.0572    5.2855    1.0286 C   0  0  0  0  0  0  0  0  0  0  0  0
    0.8015    5.2078   -0.4996 C   0  0  0  0  0  0  0  0  0  0  0  0
    1.8065    4.1337   -0.9661 C   0  0  0  0  0  0  0  0  0  0  0  0
    3.6633   -0.8894   -1.3080 C   0  0  0  0  0  0  0  0  0  0  0  0
    4.8494   -0.2601   -0.9795 C   0  0  0  0  0  0  0  0  0  0  0  0
    6.0048   -1.0023   -0.8208 C   0  0  0  0  0  0  0  0  0  0  0  0
    5.9760   -2.3727   -1.0000 C   0  0  0  0  0  0  0  0  0  0  0  0
    4.7909   -3.0014   -1.3332 C   0  0  0  0  0  0  0  0  0  0  0  0
    3.6346   -2.2598   -1.4877 C   0  0  0  0  0  0  0  0  0  0  0  0
    2.0283   -0.1991   -2.4931 H   0  0  0  0  0  0  0  0  0  0  0  0
    3.7602    1.5121   -0.9656 H   0  0  0  0  0  0  0  0  0  0  0  0
    2.4740    1.9786   -2.1042 H   0  0  0  0  0  0  0  0  0  0  0  0
   -0.2402    2.0794    0.4416 H   0  0  0  0  0  0  0  0  0  0  0  0
    0.1379    2.3100   -1.2824 H   0  0  0  0  0  0  0  0  0  0  0  0
   -0.3078    0.1322   -1.6713 H   0  0  0  0  0  0  0  0  0  0  0  0
    1.1312   -1.6223   -0.6715 H   0  0  0  0  0  0  0  0  0  0  0  0
    1.1195   -0.7532    1.6508 H   0  0  0  0  0  0  0  0  0  0  0  0
    3.2295    1.1885    1.4543 H   0  0  0  0  0  0  0  0  0  0  0  0
    1.5652    1.4245    2.0397 H   0  0  0  0  0  0  0  0  0  0  0  0
    2.1730   -3.0774    0.6956 H   0  0  0  0  0  0  0  0  0  0  0  0
    4.2344   -4.3976    0.9623 H   0  0  0  0  0  0  0  0  0  0  0  0
    6.3483   -3.2759    1.5421 H   0  0  0  0  0  0  0  0  0  0  0  0
    6.4027   -0.8331    1.8466 H   0  0  0  0  0  0  0  0  0  0  0  0
    4.3431    0.4881    1.5716 H   0  0  0  0  0  0  0  0  0  0  0  0
   -3.1980   -1.6210    1.0459 H   0  0  0  0  0  0  0  0  0  0  0  0
   -3.2596   -0.0005    1.7796 H   0  0  0  0  0  0  0  0  0  0  0  0
   -4.7952    0.7537   -0.0153 H   0  0  0  0  0  0  0  0  0  0  0  0
   -4.7336   -0.8668   -0.7490 H   0  0  0  0  0  0  0  0  0  0  0  0
   -5.6704   -1.8432    1.3290 H   0  0  0  0  0  0  0  0  0  0  0  0
   -5.7320   -0.2226    2.0627 H   0  0  0  0  0  0  0  0  0  0  0  0
   -6.2640   -0.5160   -1.4328 H   0  0  0  0  0  0  0  0  0  0  0  0
   -6.9740   -2.0715   -0.9390 H   0  0  0  0  0  0  0  0  0  0  0  0
   -8.4162   -0.9411   -2.6020 H   0  0  0  0  0  0  0  0  0  0  0  0
   -8.5242    0.4877   -1.5448 H   0  0  0  0  0  0  0  0  0  0  0  0
   -9.4830   -2.3307   -0.8647 H   0  0  0  0  0  0  0  0  0  0  0  0
  -10.5185   -0.9344   -1.2525 H   0  0  0  0  0  0  0  0  0  0  0  0
  -10.3232   -1.2962    1.2116 H   0  0  0  0  0  0  0  0  0  0  0  0
   -9.6540    0.2773    0.7146 H   0  0  0  0  0  0  0  0  0  0  0  0
   -8.0490   -2.2717    1.2109 H   0  0  0  0  0  0  0  0  0  0  0  0
   -8.1286   -0.8632    2.2959 H   0  0  0  0  0  0  0  0  0  0  0  0
    0.4476    3.2400    1.4844 H   0  0  0  0  0  0  0  0  0  0  0  0
    1.9713    3.7461    2.2768 H   0  0  0  0  0  0  0  0  0  0  0  0
    1.9104    5.9268    1.2496 H   0  0  0  0  0  0  0  0  0  0  0  0
    0.1671    5.6277    1.5565 H   0  0  0  0  0  0  0  0  0  0  0  0
    1.0128    6.1657   -0.9749 H   0  0  0  0  0  0  0  0  0  0  0  0
   -0.2217    4.8940   -0.7064 H   0  0  0  0  0  0  0  0  0  0  0  0
    2.7073    4.6113   -1.3516 H   0  0  0  0  0  0  0  0  0  0  0  0
    1.3562    3.5123   -1.7401 H   0  0  0  0  0  0  0  0  0  0  0  0
    4.8728    0.8110   -0.8435 H   0  0  0  0  0  0  0  0  0  0  0  0
    6.9306   -0.5111   -0.5601 H   0  0  0  0  0  0  0  0  0  0  0  0
    6.8793   -2.9522   -0.8793 H   0  0  0  0  0  0  0  0  0  0  0  0
    4.7684   -4.0721   -1.4733 H   0  0  0  0  0  0  0  0  0  0  0  0
    2.7088   -2.7509   -1.7484 H   0  0  0  0  0  0  0  0  0  0  0  0
  1  6  1  0  0  0  0
  1  2  1  0  0  0  0
  1 32  1  0  0  0  0
  1 38  1  0  0  0  0
  2  3  1  0  0  0  0
  2 39  1  0  0  0  0
  2 40  1  0  0  0  0
  3  8  1  0  0  0  0
  3  4  1  0  0  0  0
  3 27  1  0  0  0  0
  4  5  1  0  0  0  0
  4 41  1  0  0  0  0
  4 42  1  0  0  0  0
  5  6  1  0  0  0  0
  5 15  1  0  0  0  0
  5 43  1  0  0  0  0
  6  7  1  0  0  0  0
  6 44  1  0  0  0  0
  7  8  1  0  0  0  0
  7  9  1  0  0  0  0
  7 45  1  0  0  0  0
  8 46  1  0  0  0  0
  8 47  1  0  0  0  0
  9 14  2  0  0  0  0
  9 10  1  0  0  0  0
 10 11  2  0  0  0  0
 10 48  1  0  0  0  0
 11 12  1  0  0  0  0
 11 49  1  0  0  0  0
 12 13  2  0  0  0  0
 12 50  1  0  0  0  0
 13 14  1  0  0  0  0
 13 51  1  0  0  0  0
 14 52  1  0  0  0  0
 15 16  1  0  0  0  0
 16 17  2  0  0  0  0
 16 18  1  0  0  0  0
 18 19  1  0  0  0  0
 18 53  1  0  0  0  0
 18 54  1  0  0  0  0
 19 20  1  0  0  0  0
 19 55  1  0  0  0  0
 19 56  1  0  0  0  0
 20 21  1  0  0  0  0
 20 57  1  0  0  0  0
 20 58  1  0  0  0  0
 21 26  1  0  0  0  0
 21 22  1  0  0  0  0
 22 23  1  0  0  0  0
 22 59  1  0  0  0  0
 22 60  1  0  0  0  0
 23 24  1  0  0  0  0
 23 61  1  0  0  0  0
 23 62  1  0  0  0  0
 24 25  1  0  0  0  0
 24 63  1  0  0  0  0
 24 64  1  0  0  0  0
 25 26  1  0  0  0  0
 25 65  1  0  0  0  0
 25 66  1  0  0  0  0
 26 67  1  0  0  0  0
 26 68  1  0  0  0  0
 27 31  1  0  0  0  0
 27 28  1  0  0  0  0
 28 29  1  0  0  0  0
 28 69  1  0  0  0  0
 28 70  1  0  0  0  0
 29 30  1  0  0  0  0
 29 71  1  0  0  0  0
 29 72  1  0  0  0  0
 30 31  1  0  0  0  0
 30 73  1  0  0  0  0
 30 74  1  0  0  0  0
 31 75  1  0  0  0  0
 31 76  1  0  0  0  0
 32 37  2  0  0  0  0
 32 33  1  0  0  0  0
 33 34  2  0  0  0  0
 33 77  1  0  0  0  0
 34 35  1  0  0  0  0
 34 78  1  0  0  0  0
 35 36  2  0  0  0  0
 35 79  1  0  0  0  0
 36 37  1  0  0  0  0
 36 80  1  0  0  0  0
 37 81  1  0  0  0  0
M  END
