
  corina  02132004123D 1   1.00000     0.00000     0
CORINA evaluation license 4.00 0066  26.04.2017
 84 89  0  0  0  0            999 V2000
    1.9556   -1.1695    1.3788 C   0  0  0  0  0  0  0  0  0  0  0  0
    2.4927    0.2179    1.7359 C   0  0  0  0  0  0  0  0  0  0  0  0
    2.3210    1.1550    0.5387 C   0  0  0  0  0  0  0  0  0  0  0  0
    0.8370    1.2591    0.1812 C   0  0  0  0  0  0  0  0  0  0  0  0
    0.3000   -0.1283   -0.1760 C   0  0  0  0  0  0  0  0  0  0  0  0
    1.4259   -1.1573   -0.0566 C   0  0  0  0  0  0  0  0  0  0  0  0
    2.5593   -0.7868   -1.0153 C   0  0  0  0  0  0  0  0  0  0  0  0
    3.0963    0.6006   -0.6581 C   0  0  0  0  0  0  0  0  0  0  0  0
    2.0376   -0.7748   -2.4291 C   0  0  0  0  0  0  0  0  0  0  0  0
    2.2719   -1.8533   -3.2614 C   0  0  0  0  0  0  0  0  0  0  0  0
    1.7896   -1.8442   -4.5569 C   0  0  0  0  0  0  0  0  0  0  0  0
    1.0811   -0.7526   -5.0230 C   0  0  0  0  0  0  0  0  0  0  0  0
    0.8509    0.3280   -4.1921 C   0  0  0  0  0  0  0  0  0  0  0  0
    1.3295    0.3170   -2.8953 C   0  0  0  0  0  0  0  0  0  0  0  0
   -0.7756   -0.4800    0.7339 O   0  0  0  0  0  0  0  0  0  0  0  0
   -2.0195   -0.1292    0.3715 C   0  0  0  0  0  0  0  0  0  0  0  0
   -2.2035    0.4525   -0.6715 O   0  0  0  0  0  0  0  0  0  0  0  0
   -3.1865   -0.4607    1.2654 C   0  0  0  0  0  0  0  0  0  0  0  0
   -4.4801    0.0456    0.6242 C   0  0  0  0  0  0  0  0  0  0  0  0
   -5.6649   -0.2911    1.5318 C   0  0  0  0  0  0  0  0  0  0  0  0
   -6.9070    0.1951    0.9162 N   0  0  0  0  0  0  0  0  0  0  0  0
   -8.0836   -0.3124    1.6335 C   0  0  0  0  0  0  0  0  0  0  0  0
   -9.3489    0.3276    1.0578 C   0  0  0  0  0  0  0  0  0  0  0  0
   -9.4522   -0.0085   -0.4325 C   0  0  0  0  0  0  0  0  0  0  0  0
   -8.1928    0.4878   -1.1481 C   0  0  0  0  0  0  0  0  0  0  0  0
   -6.9610   -0.1568   -0.5084 C   0  0  0  0  0  0  0  0  0  0  0  0
    2.8367    2.4871    0.8817 N   0  0  0  0  0  0  0  0  0  0  0  0
    4.2340    2.4119    1.3270 C   0  0  0  0  0  0  0  0  0  0  0  0
    4.6909    3.7895    1.8123 C   0  0  0  0  0  0  0  0  0  0  0  0
    4.5535    4.7993    0.6695 C   0  0  0  0  0  0  0  0  0  0  0  0
    3.0989    4.8229    0.1919 C   0  0  0  0  0  0  0  0  0  0  0  0
    2.6881    3.4154   -0.2465 C   0  0  0  0  0  0  0  0  0  0  0  0
    3.0647   -2.1830    1.4964 C   0  0  0  0  0  0  0  0  0  0  0  0
    2.8097   -3.4261    2.0447 C   0  0  0  0  0  0  0  0  0  0  0  0
    3.8259   -4.3573    2.1486 C   0  0  0  0  0  0  0  0  0  0  0  0
    5.0994   -4.0421    1.7129 C   0  0  0  0  0  0  0  0  0  0  0  0
    5.3555   -2.7973    1.1690 C   0  0  0  0  0  0  0  0  0  0  0  0
    4.3382   -1.8676    1.0612 C   0  0  0  0  0  0  0  0  0  0  0  0
    1.1482   -1.4334    2.0618 H   0  0  0  0  0  0  0  0  0  0  0  0
    3.5499    0.1438    1.9907 H   0  0  0  0  0  0  0  0  0  0  0  0
    1.9404    0.6129    2.5886 H   0  0  0  0  0  0  0  0  0  0  0  0
    0.7148    1.9267   -0.6717 H   0  0  0  0  0  0  0  0  0  0  0  0
    0.2847    1.6541    1.0338 H   0  0  0  0  0  0  0  0  0  0  0  0
   -0.0774   -0.1197   -1.1986 H   0  0  0  0  0  0  0  0  0  0  0  0
    1.0433   -2.1457   -0.3110 H   0  0  0  0  0  0  0  0  0  0  0  0
    3.3614   -1.5199   -0.9302 H   0  0  0  0  0  0  0  0  0  0  0  0
    2.9740    1.2682   -1.5111 H   0  0  0  0  0  0  0  0  0  0  0  0
    4.1536    0.5265   -0.4034 H   0  0  0  0  0  0  0  0  0  0  0  0
    2.8289   -2.7045   -2.8986 H   0  0  0  0  0  0  0  0  0  0  0  0
    1.9692   -2.6886   -5.2059 H   0  0  0  0  0  0  0  0  0  0  0  0
    0.7072   -0.7440   -6.0361 H   0  0  0  0  0  0  0  0  0  0  0  0
    0.2974    1.1809   -4.5562 H   0  0  0  0  0  0  0  0  0  0  0  0
    1.1499    1.1614   -2.2463 H   0  0  0  0  0  0  0  0  0  0  0  0
   -3.0495    0.0188    2.2347 H   0  0  0  0  0  0  0  0  0  0  0  0
   -3.2460   -1.5408    1.3996 H   0  0  0  0  0  0  0  0  0  0  0  0
   -4.6171   -0.4339   -0.3450 H   0  0  0  0  0  0  0  0  0  0  0  0
   -4.4206    1.1257    0.4901 H   0  0  0  0  0  0  0  0  0  0  0  0
   -5.5279    0.1885    2.5011 H   0  0  0  0  0  0  0  0  0  0  0  0
   -5.7245   -1.3711    1.6660 H   0  0  0  0  0  0  0  0  0  0  0  0
   -7.9995   -0.0631    2.6913 H   0  0  0  0  0  0  0  0  0  0  0  0
   -8.1397   -1.3949    1.5190 H   0  0  0  0  0  0  0  0  0  0  0  0
   -9.2996    1.4091    1.1843 H   0  0  0  0  0  0  0  0  0  0  0  0
  -10.2232   -0.0611    1.5799 H   0  0  0  0  0  0  0  0  0  0  0  0
   -9.5406   -1.0877   -0.5573 H   0  0  0  0  0  0  0  0  0  0  0  0
  -10.3289    0.4812   -0.8564 H   0  0  0  0  0  0  0  0  0  0  0  0
   -8.2411    0.2137   -2.2020 H   0  0  0  0  0  0  0  0  0  0  0  0
   -8.1253    1.5718   -1.0562 H   0  0  0  0  0  0  0  0  0  0  0  0
   -6.0616    0.2055   -1.0064 H   0  0  0  0  0  0  0  0  0  0  0  0
   -7.0224   -1.2400   -0.6129 H   0  0  0  0  0  0  0  0  0  0  0  0
    4.3171    1.6936    2.1426 H   0  0  0  0  0  0  0  0  0  0  0  0
    4.8632    2.0924    0.4963 H   0  0  0  0  0  0  0  0  0  0  0  0
    5.7328    3.7369    2.1282 H   0  0  0  0  0  0  0  0  0  0  0  0
    4.0715    4.1040    2.6522 H   0  0  0  0  0  0  0  0  0  0  0  0
    5.2031    4.5065   -0.1554 H   0  0  0  0  0  0  0  0  0  0  0  0
    4.8369    5.7906    1.0233 H   0  0  0  0  0  0  0  0  0  0  0  0
    3.0034    5.5086   -0.6500 H   0  0  0  0  0  0  0  0  0  0  0  0
    2.4539    5.1533    1.0061 H   0  0  0  0  0  0  0  0  0  0  0  0
    3.3246    3.0912   -1.0698 H   0  0  0  0  0  0  0  0  0  0  0  0
    1.6485    3.4258   -0.5737 H   0  0  0  0  0  0  0  0  0  0  0  0
    1.8156   -3.6709    2.3888 H   0  0  0  0  0  0  0  0  0  0  0  0
    3.6258   -5.3300    2.5732 H   0  0  0  0  0  0  0  0  0  0  0  0
    5.8942   -4.7685    1.7972 H   0  0  0  0  0  0  0  0  0  0  0  0
    6.3505   -2.5511    0.8287 H   0  0  0  0  0  0  0  0  0  0  0  0
    4.5384   -0.8950    0.6365 H   0  0  0  0  0  0  0  0  0  0  0  0
  1  6  1  0  0  0  0
  1  2  1  0  0  0  0
  1 33  1  0  0  0  0
  1 39  1  0  0  0  0
  2  3  1  0  0  0  0
  2 40  1  0  0  0  0
  2 41  1  0  0  0  0
  3  8  1  0  0  0  0
  3  4  1  0  0  0  0
  3 27  1  0  0  0  0
  4  5  1  0  0  0  0
  4 42  1  0  0  0  0
  4 43  1  0  0  0  0
  5  6  1  0  0  0  0
  5 15  1  0  0  0  0
  5 44  1  0  0  0  0
  6  7  1  0  0  0  0
  6 45  1  0  0  0  0
  7  8  1  0  0  0  0
  7  9  1  0  0  0  0
  7 46  1  0  0  0  0
  8 47  1  0  0  0  0
  8 48  1  0  0  0  0
  9 14  2  0  0  0  0
  9 10  1  0  0  0  0
 10 11  2  0  0  0  0
 10 49  1  0  0  0  0
 11 12  1  0  0  0  0
 11 50  1  0  0  0  0
 12 13  2  0  0  0  0
 12 51  1  0  0  0  0
 13 14  1  0  0  0  0
 13 52  1  0  0  0  0
 14 53  1  0  0  0  0
 15 16  1  0  0  0  0
 16 17  2  0  0  0  0
 16 18  1  0  0  0  0
 18 19  1  0  0  0  0
 18 54  1  0  0  0  0
 18 55  1  0  0  0  0
 19 20  1  0  0  0  0
 19 56  1  0  0  0  0
 19 57  1  0  0  0  0
 20 21  1  0  0  0  0
 20 58  1  0  0  0  0
 20 59  1  0  0  0  0
 21 26  1  0  0  0  0
 21 22  1  0  0  0  0
 22 23  1  0  0  0  0
 22 60  1  0  0  0  0
 22 61  1  0  0  0  0
 23 24  1  0  0  0  0
 23 62  1  0  0  0  0
 23 63  1  0  0  0  0
 24 25  1  0  0  0  0
 24 64  1  0  0  0  0
 24 65  1  0  0  0  0
 25 26  1  0  0  0  0
 25 66  1  0  0  0  0
 25 67  1  0  0  0  0
 26 68  1  0  0  0  0
 26 69  1  0  0  0  0
 27 32  1  0  0  0  0
 27 28  1  0  0  0  0
 28 29  1  0  0  0  0
 28 70  1  0  0  0  0
 28 71  1  0  0  0  0
 29 30  1  0  0  0  0
 29 72  1  0  0  0  0
 29 73  1  0  0  0  0
 30 31  1  0  0  0  0
 30 74  1  0  0  0  0
 30 75  1  0  0  0  0
 31 32  1  0  0  0  0
 31 76  1  0  0  0  0
 31 77  1  0  0  0  0
 32 78  1  0  0  0  0
 32 79  1  0  0  0  0
 33 38  2  0  0  0  0
 33 34  1  0  0  0  0
 34 35  2  0  0  0  0
 34 80  1  0  0  0  0
 35 36  1  0  0  0  0
 35 81  1  0  0  0  0
 36 37  2  0  0  0  0
 36 82  1  0  0  0  0
 37 38  1  0  0  0  0
 37 83  1  0  0  0  0
 38 84  1  0  0  0  0
M  END
