
  corina  02132003063D 1   1.00000     0.00000     0
CORINA evaluation license 4.00 0066  26.04.2017
 79 84  0  0  0  0            999 V2000
    2.2947   -1.1286    1.5653 C   0  0  0  0  0  0  0  0  0  0  0  0
    2.8541    0.2949    1.6072 C   0  0  0  0  0  0  0  0  0  0  0  0
    2.1161    1.1631    0.5862 C   0  0  0  0  0  0  0  0  0  0  0  0
    0.6242    1.1912    0.9241 C   0  0  0  0  0  0  0  0  0  0  0  0
    0.0648   -0.2322    0.8822 C   0  0  0  0  0  0  0  0  0  0  0  0
    1.1839   -1.2093    0.5163 C   0  0  0  0  0  0  0  0  0  0  0  0
    1.7514   -0.8437   -0.8567 C   0  0  0  0  0  0  0  0  0  0  0  0
    2.3108    0.5797   -0.8148 C   0  0  0  0  0  0  0  0  0  0  0  0
    0.6573   -0.9233   -1.8900 C   0  0  0  0  0  0  0  0  0  0  0  0
    0.3444   -2.1368   -2.4733 C   0  0  0  0  0  0  0  0  0  0  0  0
   -0.6623   -2.2106   -3.4179 C   0  0  0  0  0  0  0  0  0  0  0  0
   -1.3495   -1.0691   -3.7861 C   0  0  0  0  0  0  0  0  0  0  0  0
   -1.0333    0.1453   -3.2063 C   0  0  0  0  0  0  0  0  0  0  0  0
   -0.0296    0.2183   -2.2586 C   0  0  0  0  0  0  0  0  0  0  0  0
   -0.9894   -0.3089   -0.1133 O   0  0  0  0  0  0  0  0  0  0  0  0
   -2.2243    0.0418    0.2786 C   0  0  0  0  0  0  0  0  0  0  0  0
   -2.4019    0.4908    1.3862 O   0  0  0  0  0  0  0  0  0  0  0  0
   -3.3893   -0.1244   -0.6628 C   0  0  0  0  0  0  0  0  0  0  0  0
   -4.6395    0.1776    0.0471 N   0  0  0  0  0  0  0  0  0  0  0  0
   -4.8951   -0.8080    1.1052 C   0  0  0  0  0  0  0  0  0  0  0  0
   -6.1220   -0.3824    1.9149 C   0  0  0  0  0  0  0  0  0  0  0  0
   -7.3326   -0.2808    0.9828 C   0  0  0  0  0  0  0  0  0  0  0  0
   -7.0221    0.7157   -0.1374 C   0  0  0  0  0  0  0  0  0  0  0  0
   -5.7691    0.2583   -0.8877 C   0  0  0  0  0  0  0  0  0  0  0  0
   -8.4685    0.1711    1.7228 O   0  0  0  0  0  0  0  0  0  0  0  0
    2.6532    2.5298    0.6264 N   0  0  0  0  0  0  0  0  0  0  0  0
    4.1048    2.5316    0.4048 C   0  0  0  0  0  0  0  0  0  0  0  0
    4.6499    3.9485    0.5974 C   0  0  0  0  0  0  0  0  0  0  0  0
    3.9626    4.8934   -0.3922 C   0  0  0  0  0  0  0  0  0  0  0  0
    2.4483    4.8364   -0.1726 C   0  0  0  0  0  0  0  0  0  0  0  0
    1.9670    3.3936   -0.3428 C   0  0  0  0  0  0  0  0  0  0  0  0
    3.3969   -2.0910    1.2048 C   0  0  0  0  0  0  0  0  0  0  0  0
    3.4470   -3.3383    1.7986 C   0  0  0  0  0  0  0  0  0  0  0  0
    4.4555   -4.2228    1.4648 C   0  0  0  0  0  0  0  0  0  0  0  0
    5.4195   -3.8564    0.5442 C   0  0  0  0  0  0  0  0  0  0  0  0
    5.3721   -2.6072   -0.0460 C   0  0  0  0  0  0  0  0  0  0  0  0
    4.3611   -1.7244    0.2846 C   0  0  0  0  0  0  0  0  0  0  0  0
    1.8904   -1.3891    2.5434 H   0  0  0  0  0  0  0  0  0  0  0  0
    2.7154    0.7105    2.6053 H   0  0  0  0  0  0  0  0  0  0  0  0
    3.9169    0.2748    1.3664 H   0  0  0  0  0  0  0  0  0  0  0  0
    0.0985    1.8098    0.1967 H   0  0  0  0  0  0  0  0  0  0  0  0
    0.4855    1.6068    1.9222 H   0  0  0  0  0  0  0  0  0  0  0  0
   -0.3395   -0.4927    1.8603 H   0  0  0  0  0  0  0  0  0  0  0  0
    0.7854   -2.2235    0.4864 H   0  0  0  0  0  0  0  0  0  0  0  0
    2.5486   -1.5399   -1.1174 H   0  0  0  0  0  0  0  0  0  0  0  0
    1.7850    1.1983   -1.5422 H   0  0  0  0  0  0  0  0  0  0  0  0
    3.3736    0.5597   -1.0556 H   0  0  0  0  0  0  0  0  0  0  0  0
    0.8840   -3.0280   -2.1886 H   0  0  0  0  0  0  0  0  0  0  0  0
   -0.9095   -3.1594   -3.8706 H   0  0  0  0  0  0  0  0  0  0  0  0
   -2.1336   -1.1261   -4.5266 H   0  0  0  0  0  0  0  0  0  0  0  0
   -1.5702    1.0372   -3.4940 H   0  0  0  0  0  0  0  0  0  0  0  0
    0.2176    1.1671   -1.8058 H   0  0  0  0  0  0  0  0  0  0  0  0
   -3.4178   -1.1510   -1.0279 H   0  0  0  0  0  0  0  0  0  0  0  0
   -3.2759    0.5579   -1.5052 H   0  0  0  0  0  0  0  0  0  0  0  0
   -5.0773   -1.7842    0.6559 H   0  0  0  0  0  0  0  0  0  0  0  0
   -4.0283   -0.8673    1.7634 H   0  0  0  0  0  0  0  0  0  0  0  0
   -5.9353    0.5876    2.3758 H   0  0  0  0  0  0  0  0  0  0  0  0
   -6.3208   -1.1222    2.6903 H   0  0  0  0  0  0  0  0  0  0  0  0
   -7.5434   -1.2595    0.5517 H   0  0  0  0  0  0  0  0  0  0  0  0
   -6.8495    1.7029    0.2912 H   0  0  0  0  0  0  0  0  0  0  0  0
   -7.8640    0.7604   -0.8284 H   0  0  0  0  0  0  0  0  0  0  0  0
   -5.5371    0.9733   -1.6770 H   0  0  0  0  0  0  0  0  0  0  0  0
   -5.9473   -0.7230   -1.3275 H   0  0  0  0  0  0  0  0  0  0  0  0
   -8.7222   -0.4135    2.4500 H   0  0  0  0  0  0  0  0  0  0  0  0
    4.5818    1.8589    1.1177 H   0  0  0  0  0  0  0  0  0  0  0  0
    4.3177    2.1953   -0.6099 H   0  0  0  0  0  0  0  0  0  0  0  0
    5.7249    3.9525    0.4175 H   0  0  0  0  0  0  0  0  0  0  0  0
    4.4501    4.2806    1.6162 H   0  0  0  0  0  0  0  0  0  0  0  0
    4.1947    4.5849   -1.4116 H   0  0  0  0  0  0  0  0  0  0  0  0
    4.3162    5.9115   -0.2293 H   0  0  0  0  0  0  0  0  0  0  0  0
    1.9504    5.4746   -0.9025 H   0  0  0  0  0  0  0  0  0  0  0  0
    2.2133    5.1819    0.8341 H   0  0  0  0  0  0  0  0  0  0  0  0
    2.1899    3.0534   -1.3541 H   0  0  0  0  0  0  0  0  0  0  0  0
    0.8914    3.3472   -0.1730 H   0  0  0  0  0  0  0  0  0  0  0  0
    2.6962   -3.6231    2.5209 H   0  0  0  0  0  0  0  0  0  0  0  0
    4.4923   -5.1988    1.9257 H   0  0  0  0  0  0  0  0  0  0  0  0
    6.2093   -4.5461    0.2859 H   0  0  0  0  0  0  0  0  0  0  0  0
    6.1252   -2.3210   -0.7653 H   0  0  0  0  0  0  0  0  0  0  0  0
    4.3243   -0.7484   -0.1763 H   0  0  0  0  0  0  0  0  0  0  0  0
  1  6  1  0  0  0  0
  1  2  1  0  0  0  0
  1 32  1  0  0  0  0
  1 38  1  0  0  0  0
  2  3  1  0  0  0  0
  2 39  1  0  0  0  0
  2 40  1  0  0  0  0
  3  8  1  0  0  0  0
  3  4  1  0  0  0  0
  3 26  1  0  0  0  0
  4  5  1  0  0  0  0
  4 41  1  0  0  0  0
  4 42  1  0  0  0  0
  5  6  1  0  0  0  0
  5 15  1  0  0  0  0
  5 43  1  0  0  0  0
  6  7  1  0  0  0  0
  6 44  1  0  0  0  0
  7  8  1  0  0  0  0
  7  9  1  0  0  0  0
  7 45  1  0  0  0  0
  8 46  1  0  0  0  0
  8 47  1  0  0  0  0
  9 14  2  0  0  0  0
  9 10  1  0  0  0  0
 10 11  2  0  0  0  0
 10 48  1  0  0  0  0
 11 12  1  0  0  0  0
 11 49  1  0  0  0  0
 12 13  2  0  0  0  0
 12 50  1  0  0  0  0
 13 14  1  0  0  0  0
 13 51  1  0  0  0  0
 14 52  1  0  0  0  0
 15 16  1  0  0  0  0
 16 17  2  0  0  0  0
 16 18  1  0  0  0  0
 18 19  1  0  0  0  0
 18 53  1  0  0  0  0
 18 54  1  0  0  0  0
 19 24  1  0  0  0  0
 19 20  1  0  0  0  0
 20 21  1  0  0  0  0
 20 55  1  0  0  0  0
 20 56  1  0  0  0  0
 21 22  1  0  0  0  0
 21 57  1  0  0  0  0
 21 58  1  0  0  0  0
 22 23  1  0  0  0  0
 22 25  1  0  0  0  0
 22 59  1  0  0  0  0
 23 24  1  0  0  0  0
 23 60  1  0  0  0  0
 23 61  1  0  0  0  0
 24 62  1  0  0  0  0
 24 63  1  0  0  0  0
 25 64  1  0  0  0  0
 26 31  1  0  0  0  0
 26 27  1  0  0  0  0
 27 28  1  0  0  0  0
 27 65  1  0  0  0  0
 27 66  1  0  0  0  0
 28 29  1  0  0  0  0
 28 67  1  0  0  0  0
 28 68  1  0  0  0  0
 29 30  1  0  0  0  0
 29 69  1  0  0  0  0
 29 70  1  0  0  0  0
 30 31  1  0  0  0  0
 30 71  1  0  0  0  0
 30 72  1  0  0  0  0
 31 73  1  0  0  0  0
 31 74  1  0  0  0  0
 32 37  2  0  0  0  0
 32 33  1  0  0  0  0
 33 34  2  0  0  0  0
 33 75  1  0  0  0  0
 34 35  1  0  0  0  0
 34 76  1  0  0  0  0
 35 36  2  0  0  0  0
 35 77  1  0  0  0  0
 36 37  1  0  0  0  0
 36 78  1  0  0  0  0
 37 79  1  0  0  0  0
M  END
