
  corina  02132003173D 1   1.00000     0.00000     0
CORINA evaluation license 4.00 0066  26.04.2017
 71 75  0  0  0  0            999 V2000
    2.7847    0.0777   -1.4324 C   0  0  0  0  0  0  0  0  0  0  0  0
    3.2184    1.4444   -0.8987 C   0  0  0  0  0  0  0  0  0  0  0  0
    2.2578    1.8886    0.2063 C   0  0  0  0  0  0  0  0  0  0  0  0
    0.8401    1.9886   -0.3601 C   0  0  0  0  0  0  0  0  0  0  0  0
    0.4065    0.6219   -0.8938 C   0  0  0  0  0  0  0  0  0  0  0  0
    1.5351   -0.3894   -0.6832 C   0  0  0  0  0  0  0  0  0  0  0  0
    1.8479   -0.5009    0.8103 C   0  0  0  0  0  0  0  0  0  0  0  0
    2.2815    0.8658    1.3441 C   0  0  0  0  0  0  0  0  0  0  0  0
    0.6171   -0.9609    1.5483 C   0  0  0  0  0  0  0  0  0  0  0  0
    0.3223   -2.3091    1.6277 C   0  0  0  0  0  0  0  0  0  0  0  0
   -0.8044   -2.7314    2.3083 C   0  0  0  0  0  0  0  0  0  0  0  0
   -1.6414   -1.8048    2.9014 C   0  0  0  0  0  0  0  0  0  0  0  0
   -1.3492   -0.4563    2.8179 C   0  0  0  0  0  0  0  0  0  0  0  0
   -0.2202   -0.0343    2.1410 C   0  0  0  0  0  0  0  0  0  0  0  0
   -0.7794    0.1787   -0.1828 O   0  0  0  0  0  0  0  0  0  0  0  0
   -1.9649    0.5909   -0.6586 C   0  0  0  0  0  0  0  0  0  0  0  0
   -2.0077    1.3728   -1.5788 O   0  0  0  0  0  0  0  0  0  0  0  0
   -3.2425    0.0787   -0.0450 C   0  0  0  0  0  0  0  0  0  0  0  0
   -4.4371    0.5914   -0.8518 C   0  0  0  0  0  0  0  0  0  0  0  0
   -5.6825    0.0920   -0.2537 N   0  0  0  0  0  0  0  0  0  0  0  0
   -5.8135   -1.3682   -0.4445 C   0  0  0  0  0  0  0  0  0  0  0  0
   -7.3348   -1.6110   -0.6073 C   0  0  0  0  0  0  0  0  0  0  0  0
   -7.7667   -0.3606   -1.4177 C   0  0  0  0  0  0  0  0  0  0  0  0
   -6.8576    0.7510   -0.8526 C   0  0  0  0  0  0  0  0  0  0  0  0
    2.6742    3.2008    0.7188 N   0  0  0  0  0  0  0  0  0  0  0  0
    2.6635    4.2103   -0.3484 C   0  0  0  0  0  0  0  0  0  0  0  0
    1.8298    3.6177    1.8463 C   0  0  0  0  0  0  0  0  0  0  0  0
    3.8964   -0.9184   -1.2250 C   0  0  0  0  0  0  0  0  0  0  0  0
    4.1817   -1.8499   -2.2056 C   0  0  0  0  0  0  0  0  0  0  0  0
    5.2044   -2.7608   -2.0172 C   0  0  0  0  0  0  0  0  0  0  0  0
    5.9354   -2.7462   -0.8441 C   0  0  0  0  0  0  0  0  0  0  0  0
    5.6470   -1.8177    0.1386 C   0  0  0  0  0  0  0  0  0  0  0  0
    4.6272   -0.9041   -0.0517 C   0  0  0  0  0  0  0  0  0  0  0  0
    2.5620    0.1571   -2.4964 H   0  0  0  0  0  0  0  0  0  0  0  0
    3.2015    2.1730   -1.7092 H   0  0  0  0  0  0  0  0  0  0  0  0
    4.2284    1.3731   -0.4951 H   0  0  0  0  0  0  0  0  0  0  0  0
    0.8232    2.7172   -1.1706 H   0  0  0  0  0  0  0  0  0  0  0  0
    0.1558    2.3050    0.4272 H   0  0  0  0  0  0  0  0  0  0  0  0
    0.1837    0.7013   -1.9578 H   0  0  0  0  0  0  0  0  0  0  0  0
    1.2262   -1.3631   -1.0634 H   0  0  0  0  0  0  0  0  0  0  0  0
    2.6519   -1.2213    0.9604 H   0  0  0  0  0  0  0  0  0  0  0  0
    3.2915    0.7945    1.7476 H   0  0  0  0  0  0  0  0  0  0  0  0
    1.5972    1.1823    2.1313 H   0  0  0  0  0  0  0  0  0  0  0  0
    0.9740   -3.0328    1.1608 H   0  0  0  0  0  0  0  0  0  0  0  0
   -1.0325   -3.7850    2.3738 H   0  0  0  0  0  0  0  0  0  0  0  0
   -2.5234   -2.1345    3.4303 H   0  0  0  0  0  0  0  0  0  0  0  0
   -2.0031    0.2677    3.2813 H   0  0  0  0  0  0  0  0  0  0  0  0
    0.0079    1.0193    2.0755 H   0  0  0  0  0  0  0  0  0  0  0  0
   -3.2385   -1.0113   -0.0545 H   0  0  0  0  0  0  0  0  0  0  0  0
   -3.3194    0.4328    0.9829 H   0  0  0  0  0  0  0  0  0  0  0  0
   -4.4410    1.6813   -0.8424 H   0  0  0  0  0  0  0  0  0  0  0  0
   -4.3602    0.2372   -1.8798 H   0  0  0  0  0  0  0  0  0  0  0  0
   -5.2809   -1.6830   -1.3419 H   0  0  0  0  0  0  0  0  0  0  0  0
   -5.4356   -1.9004    0.4285 H   0  0  0  0  0  0  0  0  0  0  0  0
   -7.8317   -1.6385    0.3625 H   0  0  0  0  0  0  0  0  0  0  0  0
   -7.5264   -2.5255   -1.1686 H   0  0  0  0  0  0  0  0  0  0  0  0
   -8.8164   -0.1285   -1.2380 H   0  0  0  0  0  0  0  0  0  0  0  0
   -7.5800   -0.5074   -2.4815 H   0  0  0  0  0  0  0  0  0  0  0  0
   -7.3937    1.3169   -0.0907 H   0  0  0  0  0  0  0  0  0  0  0  0
   -6.5404    1.4175   -1.6547 H   0  0  0  0  0  0  0  0  0  0  0  0
    1.6563    4.2977   -0.7558 H   0  0  0  0  0  0  0  0  0  0  0  0
    2.9757    5.1722    0.0582 H   0  0  0  0  0  0  0  0  0  0  0  0
    3.3506    3.9100   -1.1395 H   0  0  0  0  0  0  0  0  0  0  0  0
    1.9109    2.8866    2.6507 H   0  0  0  0  0  0  0  0  0  0  0  0
    2.1597    4.5922    2.2064 H   0  0  0  0  0  0  0  0  0  0  0  0
    0.7924    3.6837    1.5184 H   0  0  0  0  0  0  0  0  0  0  0  0
    3.6079   -1.8639   -3.1205 H   0  0  0  0  0  0  0  0  0  0  0  0
    5.4299   -3.4859   -2.7851 H   0  0  0  0  0  0  0  0  0  0  0  0
    6.7322   -3.4600   -0.6954 H   0  0  0  0  0  0  0  0  0  0  0  0
    6.2182   -1.8064    1.0552 H   0  0  0  0  0  0  0  0  0  0  0  0
    4.4016   -0.1789    0.7162 H   0  0  0  0  0  0  0  0  0  0  0  0
  1  6  1  0  0  0  0
  1  2  1  0  0  0  0
  1 28  1  0  0  0  0
  1 34  1  0  0  0  0
  2  3  1  0  0  0  0
  2 35  1  0  0  0  0
  2 36  1  0  0  0  0
  3  8  1  0  0  0  0
  3  4  1  0  0  0  0
  3 25  1  0  0  0  0
  4  5  1  0  0  0  0
  4 37  1  0  0  0  0
  4 38  1  0  0  0  0
  5  6  1  0  0  0  0
  5 15  1  0  0  0  0
  5 39  1  0  0  0  0
  6  7  1  0  0  0  0
  6 40  1  0  0  0  0
  7  8  1  0  0  0  0
  7  9  1  0  0  0  0
  7 41  1  0  0  0  0
  8 42  1  0  0  0  0
  8 43  1  0  0  0  0
  9 14  2  0  0  0  0
  9 10  1  0  0  0  0
 10 11  2  0  0  0  0
 10 44  1  0  0  0  0
 11 12  1  0  0  0  0
 11 45  1  0  0  0  0
 12 13  2  0  0  0  0
 12 46  1  0  0  0  0
 13 14  1  0  0  0  0
 13 47  1  0  0  0  0
 14 48  1  0  0  0  0
 15 16  1  0  0  0  0
 16 17  2  0  0  0  0
 16 18  1  0  0  0  0
 18 19  1  0  0  0  0
 18 49  1  0  0  0  0
 18 50  1  0  0  0  0
 19 20  1  0  0  0  0
 19 51  1  0  0  0  0
 19 52  1  0  0  0  0
 20 24  1  0  0  0  0
 20 21  1  0  0  0  0
 21 22  1  0  0  0  0
 21 53  1  0  0  0  0
 21 54  1  0  0  0  0
 22 23  1  0  0  0  0
 22 55  1  0  0  0  0
 22 56  1  0  0  0  0
 23 24  1  0  0  0  0
 23 57  1  0  0  0  0
 23 58  1  0  0  0  0
 24 59  1  0  0  0  0
 24 60  1  0  0  0  0
 25 26  1  0  0  0  0
 25 27  1  0  0  0  0
 26 61  1  0  0  0  0
 26 62  1  0  0  0  0
 26 63  1  0  0  0  0
 27 64  1  0  0  0  0
 27 65  1  0  0  0  0
 27 66  1  0  0  0  0
 28 33  2  0  0  0  0
 28 29  1  0  0  0  0
 29 30  2  0  0  0  0
 29 67  1  0  0  0  0
 30 31  1  0  0  0  0
 30 68  1  0  0  0  0
 31 32  2  0  0  0  0
 31 69  1  0  0  0  0
 32 33  1  0  0  0  0
 32 70  1  0  0  0  0
 33 71  1  0  0  0  0
M  END
