
  corina  02132004033D 1   1.00000     0.00000     0
CORINA evaluation license 4.00 0066  26.04.2017
 79 84  0  0  0  0            999 V2000
    2.2206   -0.9327    1.7025 C   0  0  0  0  0  0  0  0  0  0  0  0
    2.7865   -1.7992    0.5756 C   0  0  0  0  0  0  0  0  0  0  0  0
    3.0978   -0.9196   -0.6369 C   0  0  0  0  0  0  0  0  0  0  0  0
    1.8147   -0.2363   -1.1141 C   0  0  0  0  0  0  0  0  0  0  0  0
    1.2488    0.6302    0.0127 C   0  0  0  0  0  0  0  0  0  0  0  0
    2.1546    0.5246    1.2413 C   0  0  0  0  0  0  0  0  0  0  0  0
    3.5604    1.0098    0.8816 C   0  0  0  0  0  0  0  0  0  0  0  0
    4.1263    0.1433   -0.2453 C   0  0  0  0  0  0  0  0  0  0  0  0
    3.4954    2.4452    0.4273 C   0  0  0  0  0  0  0  0  0  0  0  0
    3.8375    3.4622    1.2989 C   0  0  0  0  0  0  0  0  0  0  0  0
    3.7728    4.7792    0.8838 C   0  0  0  0  0  0  0  0  0  0  0  0
    3.3758    5.0786   -0.4060 C   0  0  0  0  0  0  0  0  0  0  0  0
    3.0379    4.0614   -1.2790 C   0  0  0  0  0  0  0  0  0  0  0  0
    3.0979    2.7447   -0.8623 C   0  0  0  0  0  0  0  0  0  0  0  0
   -0.0853    0.1697    0.3540 O   0  0  0  0  0  0  0  0  0  0  0  0
   -1.1146    0.7779   -0.2561 C   0  0  0  0  0  0  0  0  0  0  0  0
   -0.9062    1.6130   -1.1041 O   0  0  0  0  0  0  0  0  0  0  0  0
   -2.5300    0.4192    0.1165 C   0  0  0  0  0  0  0  0  0  0  0  0
   -3.5027    1.1569   -0.8058 C   0  0  0  0  0  0  0  0  0  0  0  0
   -4.8825    0.8073   -0.4426 N   0  0  0  0  0  0  0  0  0  0  0  0
   -5.1522   -0.6121   -0.7052 C   0  0  0  0  0  0  0  0  0  0  0  0
   -6.5444   -0.9735   -0.1823 C   0  0  0  0  0  0  0  0  0  0  0  0
   -7.5893   -0.0985   -0.8802 C   0  0  0  0  0  0  0  0  0  0  0  0
   -7.2578    1.3755   -0.6312 C   0  0  0  0  0  0  0  0  0  0  0  0
   -5.8450    1.6687   -1.1411 C   0  0  0  0  0  0  0  0  0  0  0  0
   -8.8855   -0.3918   -0.3549 O   0  0  0  0  0  0  0  0  0  0  0  0
    3.6411   -1.7515   -1.7188 N   0  0  0  0  0  0  0  0  0  0  0  0
    2.6506   -2.7547   -2.1642 C   0  0  0  0  0  0  0  0  0  0  0  0
    3.4928   -3.9923   -2.5627 C   0  0  0  0  0  0  0  0  0  0  0  0
    4.6148   -3.9660   -1.4916 C   0  0  0  0  0  0  0  0  0  0  0  0
    4.8599   -2.4569   -1.2818 C   0  0  0  0  0  0  0  0  0  0  0  0
    0.8360   -1.4107    2.0567 C   0  0  0  0  0  0  0  0  0  0  0  0
    0.3237   -1.1711    3.3181 C   0  0  0  0  0  0  0  0  0  0  0  0
   -0.9481   -1.6056    3.6416 C   0  0  0  0  0  0  0  0  0  0  0  0
   -1.7039   -2.2882    2.7068 C   0  0  0  0  0  0  0  0  0  0  0  0
   -1.1897   -2.5320    1.4470 C   0  0  0  0  0  0  0  0  0  0  0  0
    0.0804   -2.0937    1.1221 C   0  0  0  0  0  0  0  0  0  0  0  0
    2.8659   -1.0080    2.5777 H   0  0  0  0  0  0  0  0  0  0  0  0
    3.7006   -2.2860    0.9156 H   0  0  0  0  0  0  0  0  0  0  0  0
    2.0538   -2.5565    0.2966 H   0  0  0  0  0  0  0  0  0  0  0  0
    2.0365    0.3904   -1.9780 H   0  0  0  0  0  0  0  0  0  0  0  0
    1.0820   -0.9935   -1.3932 H   0  0  0  0  0  0  0  0  0  0  0  0
    1.2018    1.6684   -0.3159 H   0  0  0  0  0  0  0  0  0  0  0  0
    1.7515    1.1419    2.0441 H   0  0  0  0  0  0  0  0  0  0  0  0
    4.2057    0.9346    1.7569 H   0  0  0  0  0  0  0  0  0  0  0  0
    4.3480    0.7700   -1.1091 H   0  0  0  0  0  0  0  0  0  0  0  0
    5.0403   -0.3434    0.0948 H   0  0  0  0  0  0  0  0  0  0  0  0
    4.1520    3.2281    2.3052 H   0  0  0  0  0  0  0  0  0  0  0  0
    4.0368    5.5739    1.5658 H   0  0  0  0  0  0  0  0  0  0  0  0
    3.3293    6.1073   -0.7316 H   0  0  0  0  0  0  0  0  0  0  0  0
    2.7274    4.2954   -2.2865 H   0  0  0  0  0  0  0  0  0  0  0  0
    2.8340    1.9500   -1.5443 H   0  0  0  0  0  0  0  0  0  0  0  0
   -2.6726   -0.6561    0.0094 H   0  0  0  0  0  0  0  0  0  0  0  0
   -2.7184    0.7095    1.1501 H   0  0  0  0  0  0  0  0  0  0  0  0
   -3.3602    2.2323   -0.6987 H   0  0  0  0  0  0  0  0  0  0  0  0
   -3.3144    0.8666   -1.8394 H   0  0  0  0  0  0  0  0  0  0  0  0
   -5.1079   -0.7977   -1.7784 H   0  0  0  0  0  0  0  0  0  0  0  0
   -4.4045   -1.2234   -0.1999 H   0  0  0  0  0  0  0  0  0  0  0  0
   -6.5852   -0.8012    0.8932 H   0  0  0  0  0  0  0  0  0  0  0  0
   -6.7505   -2.0232   -0.3914 H   0  0  0  0  0  0  0  0  0  0  0  0
   -7.5766   -0.2988   -1.9516 H   0  0  0  0  0  0  0  0  0  0  0  0
   -7.3098    1.5848    0.4372 H   0  0  0  0  0  0  0  0  0  0  0  0
   -7.9736    2.0040   -1.1610 H   0  0  0  0  0  0  0  0  0  0  0  0
   -5.6004    2.7141   -0.9524 H   0  0  0  0  0  0  0  0  0  0  0  0
   -5.7975    1.4723   -2.2122 H   0  0  0  0  0  0  0  0  0  0  0  0
   -9.1611   -1.3105   -0.4779 H   0  0  0  0  0  0  0  0  0  0  0  0
    1.9710   -3.0046   -1.3495 H   0  0  0  0  0  0  0  0  0  0  0  0
    2.0933   -2.3822   -3.0237 H   0  0  0  0  0  0  0  0  0  0  0  0
    3.9066   -3.8768   -3.5645 H   0  0  0  0  0  0  0  0  0  0  0  0
    2.9038   -4.9064   -2.4888 H   0  0  0  0  0  0  0  0  0  0  0  0
    5.5150   -4.4545   -1.8643 H   0  0  0  0  0  0  0  0  0  0  0  0
    4.2789   -4.4341   -0.5663 H   0  0  0  0  0  0  0  0  0  0  0  0
    5.7109   -2.1327   -1.8808 H   0  0  0  0  0  0  0  0  0  0  0  0
    5.0490   -2.2524   -0.2280 H   0  0  0  0  0  0  0  0  0  0  0  0
    0.9157   -0.6414    4.0497 H   0  0  0  0  0  0  0  0  0  0  0  0
   -1.3499   -1.4149    4.6257 H   0  0  0  0  0  0  0  0  0  0  0  0
   -2.6962   -2.6307    2.9607 H   0  0  0  0  0  0  0  0  0  0  0  0
   -1.7802   -3.0653    0.7167 H   0  0  0  0  0  0  0  0  0  0  0  0
    0.4822   -2.2845    0.1380 H   0  0  0  0  0  0  0  0  0  0  0  0
  1  6  1  0  0  0  0
  1  2  1  0  0  0  0
  1 32  1  0  0  0  0
  1 38  1  0  0  0  0
  2  3  1  0  0  0  0
  2 39  1  0  0  0  0
  2 40  1  0  0  0  0
  3  8  1  0  0  0  0
  3  4  1  0  0  0  0
  3 27  1  0  0  0  0
  4  5  1  0  0  0  0
  4 41  1  0  0  0  0
  4 42  1  0  0  0  0
  5  6  1  0  0  0  0
  5 15  1  0  0  0  0
  5 43  1  0  0  0  0
  6  7  1  0  0  0  0
  6 44  1  0  0  0  0
  7  8  1  0  0  0  0
  7  9  1  0  0  0  0
  7 45  1  0  0  0  0
  8 46  1  0  0  0  0
  8 47  1  0  0  0  0
  9 14  2  0  0  0  0
  9 10  1  0  0  0  0
 10 11  2  0  0  0  0
 10 48  1  0  0  0  0
 11 12  1  0  0  0  0
 11 49  1  0  0  0  0
 12 13  2  0  0  0  0
 12 50  1  0  0  0  0
 13 14  1  0  0  0  0
 13 51  1  0  0  0  0
 14 52  1  0  0  0  0
 15 16  1  0  0  0  0
 16 17  2  0  0  0  0
 16 18  1  0  0  0  0
 18 19  1  0  0  0  0
 18 53  1  0  0  0  0
 18 54  1  0  0  0  0
 19 20  1  0  0  0  0
 19 55  1  0  0  0  0
 19 56  1  0  0  0  0
 20 25  1  0  0  0  0
 20 21  1  0  0  0  0
 21 22  1  0  0  0  0
 21 57  1  0  0  0  0
 21 58  1  0  0  0  0
 22 23  1  0  0  0  0
 22 59  1  0  0  0  0
 22 60  1  0  0  0  0
 23 24  1  0  0  0  0
 23 26  1  0  0  0  0
 23 61  1  0  0  0  0
 24 25  1  0  0  0  0
 24 62  1  0  0  0  0
 24 63  1  0  0  0  0
 25 64  1  0  0  0  0
 25 65  1  0  0  0  0
 26 66  1  0  0  0  0
 27 31  1  0  0  0  0
 27 28  1  0  0  0  0
 28 29  1  0  0  0  0
 28 67  1  0  0  0  0
 28 68  1  0  0  0  0
 29 30  1  0  0  0  0
 29 69  1  0  0  0  0
 29 70  1  0  0  0  0
 30 31  1  0  0  0  0
 30 71  1  0  0  0  0
 30 72  1  0  0  0  0
 31 73  1  0  0  0  0
 31 74  1  0  0  0  0
 32 37  2  0  0  0  0
 32 33  1  0  0  0  0
 33 34  2  0  0  0  0
 33 75  1  0  0  0  0
 34 35  1  0  0  0  0
 34 76  1  0  0  0  0
 35 36  2  0  0  0  0
 35 77  1  0  0  0  0
 36 37  1  0  0  0  0
 36 78  1  0  0  0  0
 37 79  1  0  0  0  0
M  END
