
  corina  02132004043D 1   1.00000     0.00000     0
CORINA evaluation license 4.00 0066  26.04.2017
 82 87  0  0  0  0            999 V2000
   -3.0944   -1.0266   -1.4340 C   0  0  0  0  0  0  0  0  0  0  0  0
   -3.5088    0.4446   -1.3643 C   0  0  0  0  0  0  0  0  0  0  0  0
   -2.4870    1.2234   -0.5335 C   0  0  0  0  0  0  0  0  0  0  0  0
   -1.1079    1.1126   -1.1865 C   0  0  0  0  0  0  0  0  0  0  0  0
   -0.6934   -0.3586   -1.2563 C   0  0  0  0  0  0  0  0  0  0  0  0
   -1.7963   -1.2285   -0.6498 C   0  0  0  0  0  0  0  0  0  0  0  0
   -2.0155   -0.8291    0.8108 C   0  0  0  0  0  0  0  0  0  0  0  0
   -2.4300    0.6420    0.8806 C   0  0  0  0  0  0  0  0  0  0  0  0
   -0.7369   -1.0280    1.5833 C   0  0  0  0  0  0  0  0  0  0  0  0
   -0.4300   -2.2714    2.1035 C   0  0  0  0  0  0  0  0  0  0  0  0
    0.7450   -2.4548    2.8083 C   0  0  0  0  0  0  0  0  0  0  0  0
    1.6083   -1.3926    3.0012 C   0  0  0  0  0  0  0  0  0  0  0  0
    1.2990   -0.1481    2.4852 C   0  0  0  0  0  0  0  0  0  0  0  0
    0.1262    0.0344    1.7766 C   0  0  0  0  0  0  0  0  0  0  0  0
    0.5385   -0.5502   -0.5120 O   0  0  0  0  0  0  0  0  0  0  0  0
    1.6861   -0.4807   -1.2047 C   0  0  0  0  0  0  0  0  0  0  0  0
    1.6599   -0.3580   -2.4065 O   0  0  0  0  0  0  0  0  0  0  0  0
    3.0073   -0.5557   -0.4836 C   0  0  0  0  0  0  0  0  0  0  0  0
    4.1458   -0.3270   -1.4799 C   0  0  0  0  0  0  0  0  0  0  0  0
    5.4336   -0.4001   -0.7770 N   0  0  0  0  0  0  0  0  0  0  0  0
    5.5736    0.7040    0.1811 C   0  0  0  0  0  0  0  0  0  0  0  0
    6.8557    0.5152    0.9952 C   0  0  0  0  0  0  0  0  0  0  0  0
    8.0569    0.4826    0.0463 C   0  0  0  0  0  0  0  0  0  0  0  0
    7.8631   -0.6450   -0.9713 C   0  0  0  0  0  0  0  0  0  0  0  0
    6.5519   -0.4226   -1.7284 C   0  0  0  0  0  0  0  0  0  0  0  0
    9.2512    0.2497    0.7956 O   0  0  0  0  0  0  0  0  0  0  0  0
   -2.8850    2.6359   -0.4665 N   0  0  0  0  0  0  0  0  0  0  0  0
   -4.2472    2.7743    0.0640 C   0  0  0  0  0  0  0  0  0  0  0  0
   -4.6810    4.2397   -0.0163 C   0  0  0  0  0  0  0  0  0  0  0  0
   -3.7077    5.1002    0.7942 C   0  0  0  0  0  0  0  0  0  0  0  0
   -2.2895    4.9007    0.2525 C   0  0  0  0  0  0  0  0  0  0  0  0
   -1.9251    3.4161    0.3250 C   0  0  0  0  0  0  0  0  0  0  0  0
   -4.1807   -1.8834   -0.8366 C   0  0  0  0  0  0  0  0  0  0  0  0
   -4.5218   -3.0827   -1.4334 C   0  0  0  0  0  0  0  0  0  0  0  0
   -5.5152   -3.8707   -0.8829 C   0  0  0  0  0  0  0  0  0  0  0  0
   -6.1741   -3.4548    0.2589 C   0  0  0  0  0  0  0  0  0  0  0  0
   -5.8363   -2.2532    0.8530 C   0  0  0  0  0  0  0  0  0  0  0  0
   -4.8399   -1.4673    0.3050 C   0  0  0  0  0  0  0  0  0  0  0  0
   -2.9382   -1.3111   -2.4746 H   0  0  0  0  0  0  0  0  0  0  0  0
   -4.4914    0.5236   -0.8990 H   0  0  0  0  0  0  0  0  0  0  0  0
   -3.5495    0.8588   -2.3717 H   0  0  0  0  0  0  0  0  0  0  0  0
   -0.3799    1.6674   -0.5947 H   0  0  0  0  0  0  0  0  0  0  0  0
   -1.1485    1.5267   -2.1939 H   0  0  0  0  0  0  0  0  0  0  0  0
   -0.5372   -0.6431   -2.2969 H   0  0  0  0  0  0  0  0  0  0  0  0
   -1.5010   -2.2765   -0.6995 H   0  0  0  0  0  0  0  0  0  0  0  0
   -2.8012   -1.4488    1.2429 H   0  0  0  0  0  0  0  0  0  0  0  0
   -1.7020    1.1969    1.4725 H   0  0  0  0  0  0  0  0  0  0  0  0
   -3.4125    0.7210    1.3459 H   0  0  0  0  0  0  0  0  0  0  0  0
   -1.1064   -3.1003    1.9563 H   0  0  0  0  0  0  0  0  0  0  0  0
    0.9868   -3.4273    3.2112 H   0  0  0  0  0  0  0  0  0  0  0  0
    2.5246   -1.5351    3.5548 H   0  0  0  0  0  0  0  0  0  0  0  0
    1.9735    0.6818    2.6359 H   0  0  0  0  0  0  0  0  0  0  0  0
   -0.1156    1.0068    1.3737 H   0  0  0  0  0  0  0  0  0  0  0  0
    3.0426    0.2107    0.2906 H   0  0  0  0  0  0  0  0  0  0  0  0
    3.1164   -1.5392   -0.0266 H   0  0  0  0  0  0  0  0  0  0  0  0
    4.1104   -1.0934   -2.2541 H   0  0  0  0  0  0  0  0  0  0  0  0
    4.0366    0.6565   -1.9369 H   0  0  0  0  0  0  0  0  0  0  0  0
    5.6223    1.6495   -0.3590 H   0  0  0  0  0  0  0  0  0  0  0  0
    4.7151    0.7132    0.8525 H   0  0  0  0  0  0  0  0  0  0  0  0
    6.8018   -0.4236    1.5464 H   0  0  0  0  0  0  0  0  0  0  0  0
    6.9673    1.3430    1.6954 H   0  0  0  0  0  0  0  0  0  0  0  0
    8.1351    1.4357   -0.4768 H   0  0  0  0  0  0  0  0  0  0  0  0
    7.8251   -1.6021   -0.4510 H   0  0  0  0  0  0  0  0  0  0  0  0
    8.6946   -0.6461   -1.6761 H   0  0  0  0  0  0  0  0  0  0  0  0
    6.4039   -1.2316   -2.4438 H   0  0  0  0  0  0  0  0  0  0  0  0
    6.5961    0.5282   -2.2594 H   0  0  0  0  0  0  0  0  0  0  0  0
    9.4368    0.9269    1.4604 H   0  0  0  0  0  0  0  0  0  0  0  0
   -4.9300    2.1607   -0.5238 H   0  0  0  0  0  0  0  0  0  0  0  0
   -4.2674    2.4460    1.1032 H   0  0  0  0  0  0  0  0  0  0  0  0
   -5.6862    4.3446    0.3919 H   0  0  0  0  0  0  0  0  0  0  0  0
   -4.6749    4.5651   -1.0566 H   0  0  0  0  0  0  0  0  0  0  0  0
   -3.7428    4.8013    1.8418 H   0  0  0  0  0  0  0  0  0  0  0  0
   -3.9877    6.1497    0.7043 H   0  0  0  0  0  0  0  0  0  0  0  0
   -1.5862    5.4778    0.8527 H   0  0  0  0  0  0  0  0  0  0  0  0
   -2.2453    5.2360   -0.7837 H   0  0  0  0  0  0  0  0  0  0  0  0
   -1.9561    3.0848    1.3630 H   0  0  0  0  0  0  0  0  0  0  0  0
   -0.9212    3.2687   -0.0733 H   0  0  0  0  0  0  0  0  0  0  0  0
   -4.0098   -3.4056   -2.3278 H   0  0  0  0  0  0  0  0  0  0  0  0
   -5.7789   -4.8096   -1.3469 H   0  0  0  0  0  0  0  0  0  0  0  0
   -6.9526   -4.0689    0.6871 H   0  0  0  0  0  0  0  0  0  0  0  0
   -6.3510   -1.9283    1.7451 H   0  0  0  0  0  0  0  0  0  0  0  0
   -4.5762   -0.5283    0.7689 H   0  0  0  0  0  0  0  0  0  0  0  0
  1  6  1  0  0  0  0
  1  2  1  0  0  0  0
  1 33  1  0  0  0  0
  1 39  1  0  0  0  0
  2  3  1  0  0  0  0
  2 40  1  0  0  0  0
  2 41  1  0  0  0  0
  3  8  1  0  0  0  0
  3  4  1  0  0  0  0
  3 27  1  0  0  0  0
  4  5  1  0  0  0  0
  4 42  1  0  0  0  0
  4 43  1  0  0  0  0
  5  6  1  0  0  0  0
  5 15  1  0  0  0  0
  5 44  1  0  0  0  0
  6  7  1  0  0  0  0
  6 45  1  0  0  0  0
  7  8  1  0  0  0  0
  7  9  1  0  0  0  0
  7 46  1  0  0  0  0
  8 47  1  0  0  0  0
  8 48  1  0  0  0  0
  9 14  2  0  0  0  0
  9 10  1  0  0  0  0
 10 11  2  0  0  0  0
 10 49  1  0  0  0  0
 11 12  1  0  0  0  0
 11 50  1  0  0  0  0
 12 13  2  0  0  0  0
 12 51  1  0  0  0  0
 13 14  1  0  0  0  0
 13 52  1  0  0  0  0
 14 53  1  0  0  0  0
 15 16  1  0  0  0  0
 16 17  2  0  0  0  0
 16 18  1  0  0  0  0
 18 19  1  0  0  0  0
 18 54  1  0  0  0  0
 18 55  1  0  0  0  0
 19 20  1  0  0  0  0
 19 56  1  0  0  0  0
 19 57  1  0  0  0  0
 20 25  1  0  0  0  0
 20 21  1  0  0  0  0
 21 22  1  0  0  0  0
 21 58  1  0  0  0  0
 21 59  1  0  0  0  0
 22 23  1  0  0  0  0
 22 60  1  0  0  0  0
 22 61  1  0  0  0  0
 23 24  1  0  0  0  0
 23 26  1  0  0  0  0
 23 62  1  0  0  0  0
 24 25  1  0  0  0  0
 24 63  1  0  0  0  0
 24 64  1  0  0  0  0
 25 65  1  0  0  0  0
 25 66  1  0  0  0  0
 26 67  1  0  0  0  0
 27 32  1  0  0  0  0
 27 28  1  0  0  0  0
 28 29  1  0  0  0  0
 28 68  1  0  0  0  0
 28 69  1  0  0  0  0
 29 30  1  0  0  0  0
 29 70  1  0  0  0  0
 29 71  1  0  0  0  0
 30 31  1  0  0  0  0
 30 72  1  0  0  0  0
 30 73  1  0  0  0  0
 31 32  1  0  0  0  0
 31 74  1  0  0  0  0
 31 75  1  0  0  0  0
 32 76  1  0  0  0  0
 32 77  1  0  0  0  0
 33 38  2  0  0  0  0
 33 34  1  0  0  0  0
 34 35  2  0  0  0  0
 34 78  1  0  0  0  0
 35 36  1  0  0  0  0
 35 79  1  0  0  0  0
 36 37  2  0  0  0  0
 36 80  1  0  0  0  0
 37 38  1  0  0  0  0
 37 81  1  0  0  0  0
 38 82  1  0  0  0  0
M  END
