
  corina  02132004143D 1   1.00000     0.00000     0
CORINA evaluation license 4.00 0066  26.04.2017
 82 87  0  0  0  0            999 V2000
    2.8078   -0.0038   -1.4906 C   0  0  0  0  0  0  0  0  0  0  0  0
    3.0099    1.4768   -1.1620 C   0  0  0  0  0  0  0  0  0  0  0  0
    2.0991    1.8696    0.0029 C   0  0  0  0  0  0  0  0  0  0  0  0
    0.6394    1.6283   -0.3872 C   0  0  0  0  0  0  0  0  0  0  0  0
    0.4374    0.1477   -0.7157 C   0  0  0  0  0  0  0  0  0  0  0  0
    1.7623   -0.5980   -0.5447 C   0  0  0  0  0  0  0  0  0  0  0  0
    2.2438   -0.4575    0.9007 C   0  0  0  0  0  0  0  0  0  0  0  0
    2.4458    1.0231    1.2293 C   0  0  0  0  0  0  0  0  0  0  0  0
    3.5488   -1.1921    1.0692 C   0  0  0  0  0  0  0  0  0  0  0  0
    3.6079   -2.5555    0.8491 C   0  0  0  0  0  0  0  0  0  0  0  0
    4.8060   -3.2286    0.9994 C   0  0  0  0  0  0  0  0  0  0  0  0
    5.9428   -2.5398    1.3790 C   0  0  0  0  0  0  0  0  0  0  0  0
    5.8826   -1.1772    1.6038 C   0  0  0  0  0  0  0  0  0  0  0  0
    4.6855   -0.5034    1.4493 C   0  0  0  0  0  0  0  0  0  0  0  0
   -0.5548   -0.4162    0.1819 O   0  0  0  0  0  0  0  0  0  0  0  0
   -1.8360   -0.3632   -0.2151 C   0  0  0  0  0  0  0  0  0  0  0  0
   -2.1189    0.1379   -1.2776 O   0  0  0  0  0  0  0  0  0  0  0  0
   -2.9214   -0.9286    0.6642 C   0  0  0  0  0  0  0  0  0  0  0  0
   -4.2786   -0.7417   -0.0169 C   0  0  0  0  0  0  0  0  0  0  0  0
   -5.3806   -1.3157    0.8759 C   0  0  0  0  0  0  0  0  0  0  0  0
   -6.6837   -1.1362    0.2220 N   0  0  0  0  0  0  0  0  0  0  0  0
   -7.0243    0.2877    0.1094 C   0  0  0  0  0  0  0  0  0  0  0  0
   -8.3123    0.4429   -0.7025 C   0  0  0  0  0  0  0  0  0  0  0  0
   -9.4437   -0.3182   -0.0061 C   0  0  0  0  0  0  0  0  0  0  0  0
   -9.0434   -1.7887    0.1421 C   0  0  0  0  0  0  0  0  0  0  0  0
   -7.7343   -1.8792    0.9295 C   0  0  0  0  0  0  0  0  0  0  0  0
  -10.6353   -0.2242   -0.7892 O   0  0  0  0  0  0  0  0  0  0  0  0
    2.2931    3.2911    0.3184 N   0  0  0  0  0  0  0  0  0  0  0  0
    1.4678    3.6942    1.4770 C   0  0  0  0  0  0  0  0  0  0  0  0
    1.0687    5.1625    1.1868 C   0  0  0  0  0  0  0  0  0  0  0  0
    0.8532    5.1309   -0.3493 C   0  0  0  0  0  0  0  0  0  0  0  0
    1.9346    4.1413   -0.8317 C   0  0  0  0  0  0  0  0  0  0  0  0
    4.1129   -0.7384   -1.3221 C   0  0  0  0  0  0  0  0  0  0  0  0
    5.2490   -0.0501   -0.9395 C   0  0  0  0  0  0  0  0  0  0  0  0
    6.4451   -0.7247   -0.7807 C   0  0  0  0  0  0  0  0  0  0  0  0
    6.5072   -2.0858   -1.0139 C   0  0  0  0  0  0  0  0  0  0  0  0
    5.3721   -2.7732   -1.4012 C   0  0  0  0  0  0  0  0  0  0  0  0
    4.1751   -2.0994   -1.5557 C   0  0  0  0  0  0  0  0  0  0  0  0
    2.4648   -0.1039   -2.5203 H   0  0  0  0  0  0  0  0  0  0  0  0
    4.0498    1.6487   -0.8841 H   0  0  0  0  0  0  0  0  0  0  0  0
    2.7628    2.0799   -2.0357 H   0  0  0  0  0  0  0  0  0  0  0  0
   -0.0095    1.9082    0.4427 H   0  0  0  0  0  0  0  0  0  0  0  0
    0.3924    2.2314   -1.2609 H   0  0  0  0  0  0  0  0  0  0  0  0
    0.0944    0.0476   -1.7455 H   0  0  0  0  0  0  0  0  0  0  0  0
    1.6184   -1.6528   -0.7788 H   0  0  0  0  0  0  0  0  0  0  0  0
    1.4989   -0.8808    1.5746 H   0  0  0  0  0  0  0  0  0  0  0  0
    3.4857    1.1950    1.5072 H   0  0  0  0  0  0  0  0  0  0  0  0
    1.7970    1.3029    2.0592 H   0  0  0  0  0  0  0  0  0  0  0  0
    2.7188   -3.0943    0.5565 H   0  0  0  0  0  0  0  0  0  0  0  0
    4.8530   -4.2931    0.8234 H   0  0  0  0  0  0  0  0  0  0  0  0
    6.8780   -3.0662    1.4997 H   0  0  0  0  0  0  0  0  0  0  0  0
    6.7708   -0.6391    1.9004 H   0  0  0  0  0  0  0  0  0  0  0  0
    4.6385    0.5612    1.6252 H   0  0  0  0  0  0  0  0  0  0  0  0
   -2.7401   -1.9909    0.8276 H   0  0  0  0  0  0  0  0  0  0  0  0
   -2.9208   -0.4084    1.6221 H   0  0  0  0  0  0  0  0  0  0  0  0
   -4.4599    0.3207   -0.1802 H   0  0  0  0  0  0  0  0  0  0  0  0
   -4.2792   -1.2619   -0.9747 H   0  0  0  0  0  0  0  0  0  0  0  0
   -5.1993   -2.3780    1.0393 H   0  0  0  0  0  0  0  0  0  0  0  0
   -5.3800   -0.7955    1.8338 H   0  0  0  0  0  0  0  0  0  0  0  0
   -7.1702    0.7061    1.1053 H   0  0  0  0  0  0  0  0  0  0  0  0
   -6.2134    0.8166   -0.3913 H   0  0  0  0  0  0  0  0  0  0  0  0
   -8.1628    0.0371   -1.7031 H   0  0  0  0  0  0  0  0  0  0  0  0
   -8.5733    1.4988   -0.7727 H   0  0  0  0  0  0  0  0  0  0  0  0
   -9.6207    0.1122    0.9796 H   0  0  0  0  0  0  0  0  0  0  0  0
   -8.9055   -2.2296   -0.8452 H   0  0  0  0  0  0  0  0  0  0  0  0
   -9.8269   -2.3272    0.6754 H   0  0  0  0  0  0  0  0  0  0  0  0
   -7.4391   -2.9241    1.0245 H   0  0  0  0  0  0  0  0  0  0  0  0
   -7.8770   -1.4506    1.9215 H   0  0  0  0  0  0  0  0  0  0  0  0
  -10.9471    0.6812   -0.9238 H   0  0  0  0  0  0  0  0  0  0  0  0
    0.5796    3.0662    1.5470 H   0  0  0  0  0  0  0  0  0  0  0  0
    2.0498    3.6338    2.3967 H   0  0  0  0  0  0  0  0  0  0  0  0
    1.8744    5.8463    1.4541 H   0  0  0  0  0  0  0  0  0  0  0  0
    0.1469    5.4269    1.7050 H   0  0  0  0  0  0  0  0  0  0  0  0
    1.0143    6.1185   -0.7814 H   0  0  0  0  0  0  0  0  0  0  0  0
   -0.1430    4.7625   -0.5939 H   0  0  0  0  0  0  0  0  0  0  0  0
    2.8119    4.6893   -1.1755 H   0  0  0  0  0  0  0  0  0  0  0  0
    1.5422    3.5249   -1.6405 H   0  0  0  0  0  0  0  0  0  0  0  0
    5.2014    1.0140   -0.7613 H   0  0  0  0  0  0  0  0  0  0  0  0
    7.3318   -0.1877   -0.4778 H   0  0  0  0  0  0  0  0  0  0  0  0
    7.4424   -2.6123   -0.8931 H   0  0  0  0  0  0  0  0  0  0  0  0
    5.4206   -3.8366   -1.5833 H   0  0  0  0  0  0  0  0  0  0  0  0
    3.2883   -2.6364   -1.8586 H   0  0  0  0  0  0  0  0  0  0  0  0
  1  6  1  0  0  0  0
  1  2  1  0  0  0  0
  1 33  1  0  0  0  0
  1 39  1  0  0  0  0
  2  3  1  0  0  0  0
  2 40  1  0  0  0  0
  2 41  1  0  0  0  0
  3  8  1  0  0  0  0
  3  4  1  0  0  0  0
  3 28  1  0  0  0  0
  4  5  1  0  0  0  0
  4 42  1  0  0  0  0
  4 43  1  0  0  0  0
  5  6  1  0  0  0  0
  5 15  1  0  0  0  0
  5 44  1  0  0  0  0
  6  7  1  0  0  0  0
  6 45  1  0  0  0  0
  7  8  1  0  0  0  0
  7  9  1  0  0  0  0
  7 46  1  0  0  0  0
  8 47  1  0  0  0  0
  8 48  1  0  0  0  0
  9 14  2  0  0  0  0
  9 10  1  0  0  0  0
 10 11  2  0  0  0  0
 10 49  1  0  0  0  0
 11 12  1  0  0  0  0
 11 50  1  0  0  0  0
 12 13  2  0  0  0  0
 12 51  1  0  0  0  0
 13 14  1  0  0  0  0
 13 52  1  0  0  0  0
 14 53  1  0  0  0  0
 15 16  1  0  0  0  0
 16 17  2  0  0  0  0
 16 18  1  0  0  0  0
 18 19  1  0  0  0  0
 18 54  1  0  0  0  0
 18 55  1  0  0  0  0
 19 20  1  0  0  0  0
 19 56  1  0  0  0  0
 19 57  1  0  0  0  0
 20 21  1  0  0  0  0
 20 58  1  0  0  0  0
 20 59  1  0  0  0  0
 21 26  1  0  0  0  0
 21 22  1  0  0  0  0
 22 23  1  0  0  0  0
 22 60  1  0  0  0  0
 22 61  1  0  0  0  0
 23 24  1  0  0  0  0
 23 62  1  0  0  0  0
 23 63  1  0  0  0  0
 24 25  1  0  0  0  0
 24 27  1  0  0  0  0
 24 64  1  0  0  0  0
 25 26  1  0  0  0  0
 25 65  1  0  0  0  0
 25 66  1  0  0  0  0
 26 67  1  0  0  0  0
 26 68  1  0  0  0  0
 27 69  1  0  0  0  0
 28 32  1  0  0  0  0
 28 29  1  0  0  0  0
 29 30  1  0  0  0  0
 29 70  1  0  0  0  0
 29 71  1  0  0  0  0
 30 31  1  0  0  0  0
 30 72  1  0  0  0  0
 30 73  1  0  0  0  0
 31 32  1  0  0  0  0
 31 74  1  0  0  0  0
 31 75  1  0  0  0  0
 32 76  1  0  0  0  0
 32 77  1  0  0  0  0
 33 38  2  0  0  0  0
 33 34  1  0  0  0  0
 34 35  2  0  0  0  0
 34 78  1  0  0  0  0
 35 36  1  0  0  0  0
 35 79  1  0  0  0  0
 36 37  2  0  0  0  0
 36 80  1  0  0  0  0
 37 38  1  0  0  0  0
 37 81  1  0  0  0  0
 38 82  1  0  0  0  0
M  END
